Physical O O
mapping O O
220 O O
kb O O
centromeric O O
of O O
the O O
human B-GENE B-GENE
MHC E-GENE E-GENE
and O O
DNA O O
sequence O O
analysis O O
of O O
the O O
43 O O
- O O
kb O O
segment O O
including O O
the O O
RING1 S-GENE S-GENE
, O O
HKE6 S-GENE S-GENE
, O O
and O O
HKE4 B-GENE B-GENE
genes E-GENE E-GENE
. O O
The O O
synthesis O O
of O O
endo O O
- O O
adduct O O
[ O O
4aS O O
, O O
5S O O
, O O
8R O O
, O O
8aR O O
, O O
SS O O
] O O
- O O
9d O O
resulting O O
from O O
cycloaddition O O
on O O
the O O
substituted O O
C O O
( O O
2 O O
) O O
- O O
C O O
( O O
3 O O
) O O
double O O
bond O O
was O O
achieved O O
in O O
a O O
chemo O O
- O O
and O O
diastereoselective O O
way O O
from O O
quinone O O
1d O O
in O O
the O O
presence O O
of O O
ZnBr O O
( O O
2 O O
) O O
. O O
DNA O O
elements O O
recognizing O O
NF B-GENE B-GENE
- I-GENE I-GENE
Y E-GENE E-GENE
and O O
Sp1 S-GENE S-GENE
regulate O O
the O O
human B-GENE B-GENE
multidrug I-GENE I-GENE
- I-GENE I-GENE
resistance I-GENE I-GENE
gene I-GENE I-GENE
promoter E-GENE E-GENE
. O O
Radioimmunoassay O O
of O O
plasma B-GENE O
gonadotropins E-GENE O
; O O
problems O O
of O O
specificity O O
Patients O O
randomized O O
into O O
the O O
active O O
treatment O O
groups O O
A30 O O
( O O
n O O
= O O
49 O O
) O O
and O O
A60 O O
( O O
n O O
= O O
48 O O
) O O
received O O
topical O O
treatment O O
with O O
3 O O
. O O
0 O O
% O O
diclofenac O O
in O O
2 O O
. O O
5 O O
% O O
hyaluronan O O
gel O O
0 O O
. O O
5 O O
g O O
twice O O
daily O O
for O O
30 O O
or O O
60 O O
days O O
, O O
respectively O O
. O O
As O O
tat S-GENE O
itself O O
dramatically O O
increases O O
HIV O B-GENE
- O I-GENE
1 O I-GENE
gene O E-GENE
expression O O
, O O
it O O
too O O
is O O
presumably O O
regulated O O
in O O
the O O
latent O O
state O O
, O O
and O O
may O O
also O O
be O O
activated O O
by O O
mitogenic O O
stimulation O O
. O O
To O O
clarify O O
the O O
difference O O
, O O
both O O
the O O
Crk B-GENE B-GENE
II E-GENE E-GENE
and O O
Crk B-GENE B-GENE
II I-GENE I-GENE
- I-GENE I-GENE
23 E-GENE E-GENE
, O O
proteins O O
were O O
expressed O O
in O O
E O O
. O O
coli O O
and O O
examined O O
their O O
binding O O
capacity O O
in O O
vitro O O
. O O
CONCLUSIONS O O
: O O
Systemic O O
factors O O
that O O
increase O O
bone O O
mineral O O
density O O
appear O O
to O O
be O O
involved O O
in O O
the O O
pathogenesis O O
of O O
ossification O O
of O O
the O O
posterior O O
longitudinal O O
ligament O O
, O O
and O O
these O O
factors O O
may O O
be O O
activated O O
after O O
middle O O
age O O
. O O
Thus O O
, O O
in O O
V O O
. O O
furnissii O O
, O O
the O O
E B-GENE O
. I-GENE O
coli I-GENE O
manX I-GENE O
equivalent E-GENE O
comprises O O
two O O
genes O O
, O O
which O O
are O O
separated O O
in O O
the O O
genome O O
by O O
two O O
other O O
genes O O
of O O
the O O
ptsM B-GENE O
complex E-GENE O
. O O
Id B-GENE O
- I-GENE O
1H E-GENE O
and O O
Id B-GENE O
- I-GENE O
2H E-GENE O
seem O O
to O O
be O O
human O O
homologues O O
of O O
mouse B-GENE O
Id I-GENE O
- I-GENE O
1 E-GENE O
and O O
Id B-GENE B-GENE
- I-GENE I-GENE
2 E-GENE E-GENE
, O O
respectively O O
, O O
and O O
have O O
potential O O
to O O
encode O O
154 O O
and O O
135 O O
amino O O
acid O O
proteins O O
. O O
Characterization O O
of O O
insertion O O
mutations O O
in O O
the O O
Saccharomyces B-GENE O
cerevisiae I-GENE O
MSH1 E-GENE S-GENE
and O O
MSH2 B-GENE B-GENE
genes E-GENE E-GENE
: O O
evidence O O
for O O
separate O O
mitochondrial O O
and O O
nuclear O O
functions O O
. O O
Transcription O O
of O O
FN B-GENE B-GENE
promoter E-GENE E-GENE
- O O
chloramphenicol B-GENE O
acetyltransferase E-GENE O
fusion O O
genes O O
carrying O O
the O O
base O O
substitution O O
in O O
one O O
or O O
more O O
of O O
these O O
G O O
- O O
rich O O
sequences O O
both O O
in O O
vivo O O
and O O
in O O
vitro O O
revealed O O
that O O
the O O
base O O
substitution O O
in O O
any O O
G O O
- O O
rich O O
sequence O O
results O O
in O O
reduction O O
of O O
promoter O O
activity O O
, O O
although O O
the O O
downstream O O
GC O O
box O O
( O O
GCd O O
) O O
plays O O
a O O
primary O O
role O O
. O O
Morphologically O O
, O O
corrugation O O
of O O
the O O
internal O O
elastic O O
lamina O O
of O O
vessels O O
was O O
often O O
observed O O
in O O
the O O
vehicle O O
- O O
treated O O
group O O
, O O
but O O
was O O
not O O
prominent O O
in O O
the O O
GLNVA O O
- O O
treated O O
groups O O
or O O
healthy O O
controls O O
. O O
A O O
GT O O
- O O
rich O O
sequence O O
binding O O
the O O
transcription B-GENE O
factor I-GENE O
Sp1 E-GENE S-GENE
is O O
crucial O O
for O O
high O O
expression O O
of O O
the O O
human B-GENE B-GENE
type I-GENE I-GENE
VII I-GENE I-GENE
collagen I-GENE I-GENE
gene E-GENE E-GENE
( O O
COL7A1 S-GENE S-GENE
) O O
in O O
fibroblasts O O
and O O
keratinocytes O O
. O O
Each O O
received O O
20 O O
mL O O
of O O
one O O
of O O
three O O
test O O
solutions O O
: O O
levobupivacaine O O
control O O
, O O
levobupivacaine O O
and O O
fentanyl O O
2 O O
microg O O
/ O O
mL O O
, O O
or O O
levobupivacaine O O
and O O
fentanyl O O
3 O O
microg O O
/ O O
mL O O
. O O
The O O
XPR2 B-GENE B-GENE
gene E-GENE E-GENE
from O O
Yarrowia O O
lipolytica O O
encodes O O
an O O
inducible O O
alkaline B-GENE O
extracellular I-GENE O
protease E-GENE O
. O O
CONCLUSIONS O O
: O O
This O O
study O O
shows O O
that O O
the O O
annual O O
rate O O
of O O
de O O
novo O O
aneurysm O O
formation O O
is O O
relatively O O
high O O
( O O
0 O O
. O O
89 O O
% O O
) O O
and O O
that O O
the O O
cumulative O O
risk O O
becomes O O
significant O O
after O O
9 O O
years O O
. O O
It O O
was O O
found O O
that O O
Nopp140 S-GENE S-GENE
binds O O
primarily O O
to O O
the O O
CK2 B-GENE B-GENE
regulatory I-GENE I-GENE
subunit I-GENE E-GENE
, I-GENE O
beta E-GENE O
. O O
Juvenile O O
idiopathic O O
inflammatory O O
myopathies O O
: O O
the O O
value O O
of O O
magnetic O O
resonance O O
imaging O O
in O O
the O O
detection O O
of O O
muscle O O
involvement O O
. O O
Previous O O
analysis O O
of O O
this O O
motif O O
in O O
the O O
lactose B-GENE O
permease E-GENE O
( O O
A O O
. O O
Combined O O
chemotherapy O O
with O O
VM O O
26 O O
and O O
BCNU O O
for O O
recurrent O O
malignant O O
gliomas O O
after O O
operation O O
and O O
irradiation O O
. O O
Like O O
other O O
IAPs S-GENE S-GENE
, O O
ch B-GENE O
- I-GENE O
IAP1 E-GENE O
contains O O
the O O
N B-GENE O
- I-GENE O
terminal I-GENE O
baculovirus I-GENE O
IAP I-GENE O
repeats E-GENE O
and O O
C O O
- O O
terminal O O
RING O O
finger O O
motifs O O
. O O
Effects O O
of O O
long O O
- O O
term O O
use O O
of O O
raloxifene O O
, O O
a O O
selective O O
estrogen B-GENE O
receptor E-GENE O
modulator O O
, O O
on O O
thyroid O O
function O O
test O O
profiles O O
. O O
The O O
donors O O
of O O
10 O O
patients O O
were O O
ABO O O
- O O
incompatible O O
, O O
and O O
for O O
five O O
pairs O O
the O O
ABO O O
incompatibility O O
was O O
major O O
. O O
Alternative O O
splicing O O
of O O
the O O
human B-GENE B-GENE
serotonin I-GENE I-GENE
transporter I-GENE I-GENE
gene E-GENE E-GENE
. O O
Interestingly O O
, O O
basal O O
MAPK S-GENE S-GENE
, O O
but O O
not O O
Raf B-GENE B-GENE
- I-GENE I-GENE
1 E-GENE E-GENE
, O O
activity O O
was O O
constitutively O O
enhanced O O
in O O
Jak1 S-GENE O
- O O
deficient O O
HeLa O O
cells O O
. O O
This O O
case O O
report O O
describes O O
the O O
treatment O O
of O O
a O O
patient O O
with O O
periodontosis O O
. O O
The O O
aim O O
of O O
this O O
work O O
was O O
to O O
organize O O
chemical O O
data O O
in O O
a O O
client O O
- O O
server O O
environment O O
using O O
Database O O
Management O O
System O O
and O O
Web O O
fashion O O
for O O
the O O
client O O
interface O O
. O O
Cerumen O O
management O O
in O O
hearing O O
conservation O O
: O O
the O O
Dallas O O
( O O
Texas O O
) O O
Independent O O
School O O
District O O
program O O
. O O
Lactate O O
, O O
pyruvate O O
and O O
actual O O
pH O O
values O O
in O O
the O O
venous O O
blood O O
of O O
newborn O O
calves O O
This O O
article O O
focuses O O
on O O
a O O
general O O
approach O O
to O O
the O O
use O O
of O O
ARV O O
agents O O
. O O
Platelets O O
and O O
RBCs O O
from O O
each O O
animal O O
were O O
labeled O O
with O O
51Cr O O
and O O
99mTc O O
, O O
respectively O O
, O O
and O O
were O O
rapidly O O
injected O O
into O O
the O O
right O O
atrium O O
while O O
blood O O
was O O
sampled O O
from O O
the O O
ascending O O
aorta O O
. O O
The O O
comparisons O O
of O O
swimming O O
performance O O
before O O
and O O
after O O
treatments O O
with O O
deltamethrin O O
have O O
shown O O
a O O
significant O O
effect O O
on O O
locomotory O O
ability O O
of O O
rainbow O O
trout O O
which O O
at O O
the O O
end O O
of O O
strong O O
exposure O O
( O O
e O O
. O O
g O O
. O O
Protection O O
levels O O
of O O
33 O O
. O O
3 O O
% O O
, O O
36 O O
. O O
6 O O
% O O
and O O
37 O O
. O O
0 O O
% O O
were O O
achieved O O
in O O
groups O O
which O O
had O O
received O O
, O O
respectively O O
, O O
1000 O O
20 O O
- O O
krad O O
cercariae O O
, O O
1000 O O
10 O O
- O O
krad O O
cercariae O O
, O O
2000 O O
40 O O
- O O
krad O O
cercariae O O
and O O
2000 O O
60 O O
- O O
krad O O
cercariae O O
. O O
In O O
Types O O
I O O
and O O
II O O
, O O
capillary O O
walls O O
became O O
thinner O O
and O O
more O O
capillary O O
lumens O O
were O O
visiable O O
. O O
Thus O O
, O O
primate O O
vs O O
. O O
rodent O O
promoter O O
selectivity O O
mediated O O
by O O
the O O
TBP S-GENE B-GENE
- O I-GENE
TAFI S-GENE I-GENE
complex O E-GENE
is O O
likely O O
to O O
be O O
the O O
result O O
of O O
cumulative O O
subtle O O
differences O O
between O O
individual O O
subunits O O
that O O
lead O O
to O O
species O O
- O O
specific O O
properties O O
of O O
RNA B-GENE O
polymerase I-GENE O
I E-GENE O
transcription O O
. O O
The O O
effects O O
of O O
pretreatment O O
with O O
the O O
non O O
- O O
competitive O O
NMDA O S-GENE
antagonist O O
( O O
+ O O
) O O
MK O O
- O O
801 O O
on O O
the O O
behavioral O O
alterations O O
induced O O
by O O
repeated O O
restraint O O
stress O O
were O O
investigated O O
. O O
When O O
gene O O
conversion O O
is O O
initiated O O
by O O
a O O
double O O
- O O
strand O O
break O O
( O O
DSB O O
) O O
, O O
any O O
nonhomologous O O
DNA O O
that O O
may O O
be O O
present O O
at O O
the O O
ends O O
must O O
be O O
removed O O
before O O
new O O
DNA O O
synthesis O O
can O O
be O O
initiated O O
. O O
In O O
this O O
reconstituted O O
system O O
, O O
RNAP B-GENE B-GENE
IIA E-GENE E-GENE
, O O
but O O
not O O
RNAP B-GENE B-GENE
IIB E-GENE E-GENE
, O O
can O O
transcribe O O
from O O
the O O
DHFR B-GENE B-GENE
promoter E-GENE E-GENE
. O O
The O O
cDNA O O
clones O O
encode O O
a O O
polypeptide O O
of O O
657 O O
amino O O
acids O O
with O O
a O O
bHLH O S-GENE
( O O
basic O O
- O O
helix O O
- O O
loop O O
- O O
helix O O
) O O
domain O O
, O O
characteristic O O
of O O
a O O
large O O
family O O
of O O
transcription O O
factors O O
, O O
and O O
a O O
PAS S-GENE O
( O O
Per S-GENE O
- O O
Arnt S-GENE O
- O O
Sim S-GENE O
) O O
domain O O
in O O
the O O
amino O O
- O O
terminal O O
half O O
region O O
. O O
FTF O S-GENE
( O O
Joint O O
Council O O
of O O
Civil O O
Servants O O
and O O
Functionaries O O
) O O
: O O
clarification O O
about O O
membership O O
in O O
the O O
main O O
organizations O O
Lumbar O O
spine O O
bone O O
mineral O O
density O O
( O O
BMD O O
) O O
by O O
dual O O
- O O
energy O O
X O O
- O O
ray O O
absorptiometry O O
( O O
DXA O O
) O O
increased O O
by O O
0 O O
. O O
6 O O
% O O
, O O
3 O O
. O O
6 O O
% O O
and O O
8 O O
. O O
1 O O
% O O
after O O
48 O O
weeks O O
in O O
groups O O
L O O
, O O
M O O
and O O
H O O
respectively O O
, O O
responses O O
in O O
groups O O
M O O
and O O
H O O
being O O
significantly O O
higher O O
than O O
in O O
L O O
( O O
p O O
< O O
0 O O
. O O
05 O O
, O O
Mann O O
- O O
Whitney O O
U O O
- O O
test O O
) O O
. O O
Synergy O O
between O O
interferon B-GENE B-GENE
- I-GENE I-GENE
gamma E-GENE E-GENE
and O O
tumor B-GENE B-GENE
necrosis I-GENE I-GENE
factor I-GENE I-GENE
- I-GENE I-GENE
alpha E-GENE E-GENE
in O O
transcriptional O O
activation O O
is O O
mediated O O
by O O
cooperation O O
between O O
signal B-GENE O
transducer I-GENE O
and I-GENE O
activator I-GENE O
of I-GENE O
transcription I-GENE O
1 E-GENE O
and O O
nuclear B-GENE O
factor I-GENE O
kappaB E-GENE S-GENE
. O O
1H O O
and O O
15N O O
magnetic O O
resonance O O
assignments O O
, O O
secondary O O
structure O O
, O O
and O O
tertiary O O
fold O O
of O O
Escherichia B-GENE O
coli I-GENE O
DnaJ I-GENE O
( I-GENE O
1 I-GENE O
- I-GENE O
78 I-GENE O
) E-GENE O
. O O
A O O
cDNA O O
for O O
human B-GENE O
microfibril I-GENE O
- I-GENE O
associated I-GENE O
glycoprotein I-GENE B-GENE
- I-GENE I-GENE
2 E-GENE E-GENE
( O O
MAGP B-GENE B-GENE
- I-GENE I-GENE
2 E-GENE E-GENE
) O O
was O O
used O O
to O O
screen O O
a O O
human O O
leukocyte O O
genomic O O
DNA O O
library O O
in O O
EMBL O O
- O O
3 O O
vector O O
. O O
Furthermore O O
, O O
ERK S-GENE S-GENE
phosphorylation O O
was O O
substantially O O
prolonged O O
in O O
LC O O
/ O O
BRY O O
- O O
treated O O
cells O O
compared O O
to O O
those O O
exposed O O
to O O
BRY O O
alone O O
, O O
and O O
pretreatment O O
with O O
the O O
highly O O
specific O O
MEK S-GENE S-GENE
inhibitors O O
, O O
PD98059 O S-GENE
, O O
U0126 O S-GENE
, O O
and O O
SL327 O S-GENE
, O O
opposed O O
ERK S-GENE S-GENE
activation O O
while O O
protecting O O
cells O O
from O O
LC O O
/ O O
BRY O O
- O O
induced O O
lethality O O
. O O
The O O
cholesterol B-GENE B-GENE
7alpha I-GENE I-GENE
- I-GENE I-GENE
hydroxylase I-GENE I-GENE
gene E-GENE E-GENE
( O O
CYP7A S-GENE S-GENE
) O O
is O O
transcriptionally O O
regulated O O
by O O
a O O
number O O
of O O
factors O O
, O O
including O O
hormones O O
, O O
bile O O
acids O O
, O O
and O O
diurnal O O
rhythm O O
. O O
CNS O O
preventive O O
treatment O O
without O O
cranial O O
irradiation O O
was O O
effective O O
in O O
all O O
the O O
groups O O
of O O
ALL O O
patients O O
. O O
Additionally O O
, O O
the O O
members O O
of O O
this O O
family O O
display O O
strong O O
sequence O O
homologies O O
between O O
their O O
larger O O
C O O
- O O
terminal O O
effector O O
binding O O
/ O O
oligomerization O O
domains O O
. O O
Aspartame O O
is O O
a O O
synthetic O O
sweetener O O
commonly O O
used O O
in O O
soft O O
drinks O O
and O O
many O O
foods O O
. O O
The O O
rat O O
anococcygeus O O
muscle O O
was O O
used O O
in O O
postsynaptic O O
studies O O
. O O
The O O
purpose O O
of O O
this O O
presentation O O
is O O
to O O
review O O
the O O
current O O
state O O
of O O
knowledge O O
regarding O O
5 O O
, O O
8 O O
, O O
11 O O
, O O
14 O O
- O O
eicosatetraynoic O O
acid O O
( O O
ETYA O O
, O O
Ro O O
3 O O
- O O
1428 O O
) O O
and O O
its O O
effects O O
on O O
lipid O O
metabolism O O
. O O
A O O
Meis1 B-GENE O
cDNA E-GENE O
clone O O
that O O
encoded O O
a O O
novel O O
member O O
of O O
the O O
homeobox B-GENE B-GENE
gene I-GENE I-GENE
family E-GENE E-GENE
was O O
identified O O
. O O
The O O
S B-GENE O
. I-GENE O
typhimurium I-GENE O
aspartyl I-GENE O
/ I-GENE O
asparaginyl I-GENE O
beta I-GENE O
- I-GENE O
hydroxylase I-GENE O
homologue E-GENE O
( O O
designated O O
lpxO S-GENE O
) O O
was O O
cloned O O
into O O
pBluescriptSK O O
and O O
expressed O O
in O O
Escherichia O O
coli O O
K O O
- O O
12 O O
, O O
which O O
does O O
not O O
contain O O
lpxO S-GENE O
. O O
The O O
levels O O
of O O
soluble O O
L B-GENE O
- I-GENE O
selectin E-GENE O
and O O
ICAM B-GENE O
- I-GENE O
1 E-GENE O
in O O
the O O
serum O O
were O O
determined O O
by O O
the O O
ELISA O O
method O O
. O O
The O O
highest O O
TTX S-GENE O
content O O
is O O
10 O O
. O O
0 O O
microg O O
/ O O
g O O
in O O
N O O
. O O
livescens O O
. O O
On O O
the O O
other O O
hand O O
hypokalemia O O
, O O
induced O O
by O O
diuretics O O
, O O
may O O
also O O
be O O
accompanied O O
by O O
a O O
significant O O
depletion O O
of O O
total O O
body O O
K O O
, O O
bringing O O
about O O
more O O
general O O
consequences O O
. O O
Glutathione B-GENE B-GENE
reductase E-GENE E-GENE
activities O O
in O O
liver O O
, O O
kidney O O
, O O
lung O O
, O O
and O O
brain O O
were O O
not O O
affected O O
by O O
diet O O
. O O
Here O O
, O O
we O O
describe O O
the O O
nucleotide O O
( O O
nt O O
) O O
sequence O O
and O O
genomic O O
organization O O
of O O
ipiB S-GENE S-GENE
and O O
ipiO S-GENE O
. O O
Vancomycin O O
and O O
tetracycline O O
eliminated O O
toxin O O
in O O
stools O O
and O O
delayed O O
death O O
. O O
Soluble O O
fibrin S-GENE O
monomer O O
complexes O O
in O O
thromboembolism O O
Comparison O O
to O O
the O O
murine O O
homologues O O
of O O
these O O
molecules O O
reveals O O
a O O
high O O
degree O O
of O O
conservation O O
between O O
the O O
products O O
of O O
one O O
of O O
these O O
genes O O
, O O
Fc B-GENE B-GENE
gamma I-GENE I-GENE
RIIb E-GENE E-GENE
, O O
and O O
the O O
murine B-GENE B-GENE
beta I-GENE I-GENE
gene E-GENE E-GENE
in O O
primary O O
sequence O O
, O O
splicing O O
pattern O O
, O O
and O O
tissue O O
distribution O O
. O O
Acidosis O O
provoked O O
by O O
30 O O
% O O
CO2 O O
irreversibly O O
increased O O
the O O
BDRT O O
, O O
however O O
the O O
TRT O O
were O O
not O O
changed O O
. O O
Others O O
as O O
for O O
example O O
C O O
- O O
11 O O
labeled O O
short O O
chain O O
fatty O O
acids O O
are O O
on O O
the O O
horizon O O
. O O
The O O
average O O
progression O O
was O O
11 O O
. O O
6 O O
( O O
SD O O
9 O O
. O O
0 O O
) O O
. O O
80 O O
bp O O
) O O
surrounding O O
the O O
site O O
of O O
transcription O O
initiation O O
. O O
Ultrastructure O O
and O O
toxin O O
formation O O
of O O
Cor O O
. O O
diphtheriae O O
PW O O
- O O
8 O O
cultured O O
in O O
the O O
presence O O
of O O
penicillin O O
EMT S-GENE S-GENE
was O O
localized O O
to O O
chromosome O O
5q31 O B-GENE
- O I-GENE
32 O E-GENE
, O O
a O O
region O O
that O O
contains O O
the O O
genes O O
for O O
several O O
growth O O
factors O O
and O O
receptors O O
as O O
well O O
as O O
early O O
activation O O
genes O O
, O O
particularly O O
those O O
involved O O
in O O
the O O
hematopoietic O O
system O O
. O O
Tbx6 S-GENE O
maps O O
to O O
chromosome O O
7 O O
and O O
does O O
not O O
appear O O
to O O
be O O
linked O O
to O O
any O O
known O O
mutation O O
. O O
Kaposi O O
' O O
s O O
eruptive O O
disease O O
. O O
It O O
is O O
not O O
tested O O
yet O O
, O O
whether O O
the O O
extent O O
of O O
glaucoma O O
damage O O
should O O
be O O
better O O
quantified O O
using O O
reference O O
plane O O
1 O O
or O O
2 O O
. O O
Importin B-GENE O
beta E-GENE O
mediates O O
nuclear O O
translocation O O
of O O
Smad B-GENE B-GENE
3 E-GENE E-GENE
. O O
The O O
encoded O O
protein O O
contains O O
an O O
amino O O
terminal O O
PDZ S-GENE B-GENE
domain O E-GENE
, O O
followed O O
by O O
a O O
predicted O O
coiled O O
- O O
coil O O
region O O
, O O
a O O
PEST O O
domain O O
, O O
and O O
a O O
carboxy O O
- O O
terminal O O
SAM O O
domain O O
. O O
Using O O
lasers O O
, O O
PRK O O
involves O O
reshaping O O
the O O
cornea O O
so O O
that O O
its O O
refractive O O
power O O
is O O
increased O O
. O O
However O O
, O O
sphincter O O
length O O
decreased O O
with O O
age O O
from O O
24 O O
. O O
3 O O
to O O
14 O O
. O O
8 O O
mm O O
. O O
, O O
maximal O O
urethral O O
pressure O O
from O O
88 O O
. O O
7 O O
to O O
55 O O
cm O O
. O O
water O O
and O O
maximal O O
urethral O O
pressure O O
during O O
voluntary O O
contraction O O
from O O
221 O O
. O O
4 O O
to O O
166 O O
. O O
3 O O
cm O O
. O O
water O O
. O O
Several O O
studies O O
have O O
demonstrated O O
that O O
the O O
corticotropin B-GENE O
- I-GENE O
releasing I-GENE O
factor E-GENE O
test O O
( O O
CRF S-GENE O
) O O
is O O
useful O O
for O O
the O O
aetiological O O
diagnosis O O
of O O
Cushing O O
' O O
s O O
syndrome O O
: O O
in O O
Cushing O O
' O O
s O O
disease O O
, O O
as O O
opposed O O
to O O
ectopic O O
ACTH S-GENE O
secretion O O
syndrome O O
, O O
the O O
hypothalamus O O
- O O
pituitary O O
- O O
adrenal O O
( O O
HPA O O
) O O
axis O O
can O O
still O O
be O O
stimulated O O
by O O
CRF S-GENE O
. O O
Transcription O O
initiation O O
from O O
this O O
region O O
was O O
also O O
detected O O
in O O
vivo O O
, O O
when O O
the O O
cloned O O
rRNA O O
gene O O
cluster O O
was O O
present O O
on O O
a O O
multi O O
- O O
copy O O
plasmid O O
. O O
The O O
results O O
of O O
the O O
transient O O
- O O
transfection O O
assay O O
showed O O
that O O
the O O
Sp1 B-GENE S-GENE
binding I-GENE O
element E-GENE O
located O O
in O O
the O O
core O O
region O O
( O O
positions O O
- O O
- O O
64 O O
to O O
+ O O
1 O O
) O O
of O O
the O O
alpha2 B-GENE B-GENE
- I-GENE I-GENE
integrin I-GENE I-GENE
promoter E-GENE E-GENE
plays O O
an O O
essential O O
role O O
in O O
the O O
alpha2 B-GENE B-GENE
- I-GENE I-GENE
integrin I-GENE I-GENE
promoter E-GENE E-GENE
activity O O
and O O
its O O
downregulation O O
by O O
Erb S-GENE B-GENE
- O I-GENE
B2 S-GENE E-GENE
. O O
Principal O O
component O O
analysis O O
using O O
psychosocial O O
factors O O
in O O
women O O
showed O O
two O O
psychosocial O O
structures O O
, O O
i O O
. O O
e O O
. O O
the O O
second O O
principal O O
( O O
high O O
SOC O O
, O O
high O O
lifestyle O O
, O O
and O O
low O O
stress O O
) O O
and O O
the O O
4th O O
principal O O
components O O
( O O
high O O
supernatural O O
HLC O O
, O O
and O O
high O O
PHLC O O
) O O
. O O
Expression O O
of O O
FNCAT S-GENE S-GENE
increased O O
on O O
serum O O
treatment O O
indicating O O
that O O
the O O
region O O
of O O
the O O
FN B-GENE B-GENE
gene E-GENE E-GENE
between O O
positions O O
+ O O
69 O O
and O O
- O O
510 O O
bp O O
mediated O O
serum O O
responsiveness O O
. O O
Interaction O O
of O O
the O O
v B-GENE B-GENE
- I-GENE I-GENE
rel I-GENE I-GENE
protein E-GENE E-GENE
with O O
an O O
NF B-GENE B-GENE
- I-GENE I-GENE
kappa I-GENE I-GENE
B I-GENE I-GENE
DNA I-GENE I-GENE
binding I-GENE I-GENE
site E-GENE E-GENE
. O O
This O O
increase O O
is O O
not O O
the O O
result O O
of O O
alterations O O
in O O
the O O
deposition O O
of O O
inhaled O O
particles O O
of O O
capsaicin O O
brought O O
about O O
by O O
volume O O
restriction O O
. O O
Providing O O
appropriate O O
care O O
to O O
both O O
sexes O O
. O O
To O O
test O O
this O O
hypothesis O O
, O O
we O O
developed O O
a O O
system O O
of O O
transient O O
transfection O O
of O O
rat O O
adipocytes O O
with O O
constructs O O
containing O O
glyceraldehyde B-GENE B-GENE
- I-GENE I-GENE
3 I-GENE I-GENE
- I-GENE I-GENE
phosphate I-GENE I-GENE
dehydrogenase E-GENE E-GENE
( O O
GAPDH S-GENE S-GENE
) O O
and O O
fatty B-GENE B-GENE
acid I-GENE I-GENE
synthetase E-GENE E-GENE
( O O
FAS S-GENE S-GENE
) O O
promoters O O
fused O O
to O O
gene B-GENE O
reporter I-GENE O
CAT E-GENE O
. O O
In O O
the O O
green O O
unicellular O O
alga O O
Chlamydomonas O O
eugametos O O
, O O
cellular O O
division O O
is O O
readily O O
synchronized O O
by O O
light O O
/ O O
dark O O
cycles O O
. O O
SHBG S-GENE S-GENE
concentrations O O
in O O
women O O
were O O
also O O
significantly O O
higher O O
at O O
T O O
- O O
2 O O
and O O
T O O
- O O
3 O O
when O O
compared O O
to O O
T O O
- O O
1 O O
values O O
. O O
Simvastatin O O
decreased O O
levels O O
of O O
total O O
cholesterol O O
by O O
20 O O
. O O
8 O O
% O O
, O O
LDL B-GENE O
cholesterol E-GENE O
by O O
29 O O
. O O
7 O O
% O O
, O O
triglycerides O O
by O O
13 O O
. O O
6 O O
% O O
, O O
apolipoprotein B-GENE O
B E-GENE O
by O O
22 O O
. O O
4 O O
% O O
, O O
alpha O O
- O O
tocopherol O O
by O O
16 O O
. O O
2 O O
% O O
, O O
beta O O
- O O
carotene O O
by O O
19 O O
. O O
5 O O
% O O
, O O
and O O
ubiquinol O O
- O O
10 O O
by O O
22 O O
. O O
0 O O
% O O
( O O
P O O
< O O
. O O
001 O O
for O O
all O O
) O O
and O O
increased O O
levels O O
of O O
HDL B-GENE O
cholesterol E-GENE O
by O O
7 O O
. O O
0 O O
% O O
( O O
P O O
< O O
. O O
001 O O
) O O
and O O
serum B-GENE O
insulin E-GENE O
by O O
13 O O
. O O
2 O O
% O O
( O O
P O O
= O O
. O O
005 O O
) O O
. O O
The O O
more O O
severe O O
the O O
CRF O O
, O O
the O O
more O O
likely O O
that O O
total O O
HDL S-GENE O
and O O
HDL2 B-GENE O
cholesterol E-GENE O
will O O
be O O
low O O
. O O
They O O
are O O
growth O O
- O O
inhibited O O
by O O
TGF B-GENE B-GENE
- I-GENE I-GENE
beta1 E-GENE E-GENE
. O O
To O O
investigate O O
the O O
in O O
vivo O O
role O O
of O O
this O O
chimeric B-GENE O
bZIP I-GENE B-GENE
protein E-GENE E-GENE
in O O
oncogenic O O
transformation O O
, O O
its O O
expression O O
was O O
directed O O
to O O
the O O
lymphoid O O
compartments O O
of O O
transgenic O O
mice O O
. O O
This O O
is O O
consistent O O
with O O
the O O
need O O
for O O
a O O
nuclear O O
retinoid B-GENE O
receptor E-GENE O
function O O
in O O
RA O O
- O O
induced O O
ERK2 S-GENE S-GENE
activation O O
. O O
In O O
the O O
virus O O
- O O
infected O O
cells O O
, O O
translation O O
of O O
the O O
M1 B-GENE B-GENE
protein E-GENE E-GENE
was O O
reduced O O
to O O
10 O O
to O O
20 O O
% O O
of O O
that O O
of O O
the O O
wild O O
- O O
type O O
virus O O
; O O
however O O
, O O
the O O
translation O O
of O O
neither O O
the O O
nucleoprotein O O
nor O O
NS1 S-GENE S-GENE
was O O
significantly O O
interfered O O
with O O
, O O
indicating O O
the O O
important O O
role O O
of O O
NS1 S-GENE S-GENE
in O O
translational O O
stimulation O O
of O O
the O O
M1 B-GENE B-GENE
protein E-GENE E-GENE
. O O
Some O O
cells O O
were O O
excited O O
, O O
others O O
inhibited O O
by O O
, O O
and O O
only O O
some O O
were O O
directionally O O
sensitive O O
to O O
the O O
optomotor O O
stimulus O O
. O O
LT B-GENE B-GENE
- I-GENE I-GENE
beta E-GENE E-GENE
transcription O O
is O O
maximal O O
in O O
the O O
thymic O O
medulla O O
and O O
in O O
splenic O O
white O O
pulp O O
. O O
A O O
novel O O
Cdc42Hs B-GENE B-GENE
mutant E-GENE E-GENE
induces O O
cellular O O
transformation O O
. O O
Interactions O O
were O O
also O O
detected O O
between O O
full O O
- O O
length O O
HSF1 S-GENE O
and O O
the O O
small O O
subunit O O
( O O
gamma O O
) O O
of O O
TFIIA S-GENE S-GENE
. O O
We O O
report O O
that O O
Nim1 S-GENE S-GENE
possesses O O
intrinsic O O
serine B-GENE B-GENE
- I-GENE I-GENE
kinase E-GENE E-GENE
, O O
threonine B-GENE B-GENE
- I-GENE I-GENE
kinase E-GENE E-GENE
and O O
tyrosine B-GENE B-GENE
- I-GENE I-GENE
kinase E-GENE E-GENE
activities O O
. O O
A O O
short O O
conserved O O
motif O O
is O O
required O O
for O O
repressor O O
domain O O
function O O
in O O
the O O
myeloid O O
- O O
specific O O
transcription O O
factor O O
CCAAT B-GENE S-GENE
/ I-GENE O
enhancer I-GENE O
- I-GENE O
binding I-GENE O
protein I-GENE O
epsilon E-GENE O
. O O
Androgen O O
ablation O O
- O O
- O O
50 O O
years O O
later O O
. O O
In O O
conclusion O O
, O O
ORCA3 S-GENE S-GENE
regulates O O
jasmonate O O
- O O
responsive O O
expression O O
of O O
the O O
Str B-GENE B-GENE
gene E-GENE E-GENE
via O O
direct O O
interaction O O
with O O
the O O
JERE O S-GENE
. O O
Also O O
, O O
the O O
absence O O
of O O
PdNi O O
between O O
the O O
segments O O
reduces O O
the O O
heat O O
production O O
of O O
the O O
seed O O
. O O
Theoretical O O
mechanisms O O
of O O
hyperuricemia O O
. O O
ORF3 O S-GENE
encodes O O
a O O
putative O O
periplasmic B-GENE O
c I-GENE O
- I-GENE O
type I-GENE O
cytochrome E-GENE O
with O O
a O O
molecular O O
mass O O
of O O
94 O O
, O O
000 O O
Da O O
and O O
contains O O
seven O O
c O O
- O O
heme O O
- O O
binding O O
motifs O O
but O O
shows O O
no O O
sequence O O
homology O O
to O O
occ S-GENE O
or O O
ORF1 O S-GENE
. O O
Doxazosin O O
produced O O
increases O O
in O O
both O O
mean O O
and O O
maximum O O
urinary O O
flow O O
rates O O
of O O
1 O O
. O O
01 O O
ml O O
/ O O
s O O
and O O
3 O O
. O O
2 O O
ml O O
/ O O
s O O
respectively O O
, O O
compared O O
with O O
0 O O
. O O
21 O O
ml O O
/ O O
s O O
and O O
2 O O
. O O
2 O O
ml O O
/ O O
s O O
on O O
placebo O O
. O O
Hypoxia O O
decreased O O
the O O
rate O O
of O O
spontaneous O O
impulse O O
initiation O O
in O O
SA O O
nodal O O
fibers O O
by O O
decreasing O O
the O O
slope O O
of O O
diastolic O O
depolarization O O
. O O
BACKGROUND O O
- O O
- O O
Platelet B-GENE B-GENE
activating I-GENE I-GENE
factor E-GENE E-GENE
( O O
PAF S-GENE S-GENE
) O O
has O O
been O O
implicated O O
in O O
the O O
pathogenesis O O
of O O
airway O O
hyperresponsiveness O O
in O O
asthma O O
. O O
TFEC B-GENE B-GENE
RNA E-GENE E-GENE
is O O
found O O
in O O
many O O
tissues O O
of O O
adult O O
rats O O
, O O
but O O
the O O
relative O O
concentrations O O
of O O
TFEC S-GENE S-GENE
and O O
TFE3 B-GENE B-GENE
RNAs E-GENE E-GENE
vary O O
considerably O O
in O O
these O O
different O O
tissues O O
. O O
Our O O
results O O
show O O
that O O
unlike O O
the O O
case O O
for O O
sos1 S-GENE S-GENE
, O O
sos2 B-GENE B-GENE
gene E-GENE E-GENE
function O O
is O O
dispensable O O
for O O
normal O O
mouse O O
development O O
, O O
growth O O
, O O
and O O
fertility O O
. O O
Studies O O
of O O
HS2 B-GENE B-GENE
- I-GENE I-GENE
gamma I-GENE I-GENE
gene I-GENE E-GENE
reporter I-GENE O
constructs E-GENE O
carrying O O
CACCC O S-GENE
box O O
deletions O O
revealed O O
that O O
the O O
CACCC O S-GENE
box O O
sequence O O
of O O
the O O
gamma O B-GENE
gene O I-GENE
promoter O E-GENE
mediates O O
the O O
activation O O
of O O
the O O
gamma O B-GENE
gene O E-GENE
by O O
FKLF S-GENE S-GENE
. O O
Advisory O O
Committee O O
report O O
recommends O O
that O O
US O O
make O O
amends O O
for O O
human O O
radiation O O
experiments O O
. O O
Animals O O
were O O
divided O O
into O O
six O O
equal O O
groups O O
as O O
follows O O
: O O
( O O
1 O O
) O O
no O O
oral O O
drug O O
( O O
water O O
) O O
, O O
no O O
hemodilution O O
, O O
no O O
IV O O
drug O O
( O O
saline O O
) O O
; O O
( O O
2 O O
) O O
oral O O
water O O
, O O
hemodilution O O
, O O
IV O O
saline O O
; O O
( O O
3 O O
) O O
oral O O
water O O
, O O
no O O
hemodilution O O
, O O
IV O O
propranolol O O
; O O
( O O
4 O O
) O O
oral O O
water O O
, O O
hemodilution O O
, O O
IV O O
propranolol O O
; O O
( O O
5 O O
) O O
oral O O
propranolol O O
, O O
no O O
hemodilution O O
, O O
IV O O
saline O O
; O O
and O O
( O O
6 O O
) O O
oral O O
propranolol O O
, O O
hemodilution O O
, O O
IV O O
saline O O
. O O
First O O
, O O
a O O
GATA B-GENE O
- I-GENE O
1 I-GENE O
motif E-GENE O
was O O
found O O
to O O
bind O O
nuclear O O
factor O O
( O O
s O O
) O O
, O O
presumably O O
the O O
GATA B-GENE B-GENE
- I-GENE I-GENE
1 I-GENE I-GENE
factor E-GENE E-GENE
, O O
present O O
in O O
K O O
- O O
562 O O
cell O O
extracts O O
and O O
in O O
living O O
K O O
- O O
562 O O
cells O O
. O O
BPN O O
can O O
be O O
experimentally O O
produced O O
by O O
intratracheal O O
inoculation O O
of O O
microorganisms O O
in O O
high O O
concentrations O O
and O O
ventilator O O
- O O
associated O O
BPN O O
by O O
ventilating O O
baboons O O
with O O
oleic O O
- O O
acid O O
lung O O
injury O O
. O O
A O O
mouth O O
asymmetry O O
study O O
. O O
Additionally O O
, O O
these O O
findings O O
have O O
important O O
implications O O
for O O
the O O
understanding O O
of O O
the O O
mechanisms O O
of O O
HIV O O
- O O
1 O O
latency O O
and O O
reactivation O O
. O O
This O O
inhibition O O
was O O
due O O
to O O
competition O O
from O O
the O O
EMC O B-GENE
virus O I-GENE
IRES O E-GENE
present O O
in O O
pEP B-GENE O
- I-GENE O
2A I-GENE O
transcripts E-GENE O
, O O
as O O
well O O
as O O
the O O
expression O O
of O O
proteolytically O O
active O O
2Apro S-GENE S-GENE
. O O
Some O O
may O O
affect O O
the O O
folding O O
pathway O O
or O O
the O O
affinity O O
for O O
chaperonins S-GENE O
. O O
Diet O O
imbalances O O
and O O
aflatoxicosis O O
48 O O
. O O
35 O O
+ O O
/ O O
- O O
5 O O
. O O
07 O O
mg O O
/ O O
l O O
in O O
R3 O O
; O O
p O O
< O O
0 O O
. O O
05 O O
) O O
and O O
in O O
the O O
AUC O O
( O O
0 O O
. O O
50 O O
h O O
) O O
( O O
1429 O O
. O O
92 O O
+ O O
/ O O
- O O
284 O O
. O O
23 O O
in O O
PR O O
vs O O
. O O
The O O
effect O O
on O O
FIV B-GENE B-GENE
LTR I-GENE I-GENE
promoter E-GENE E-GENE
activity O O
of O O
progressively O O
deleting O O
these O O
nuclear O O
factor O O
binding O O
sites O O
was O O
examined O O
by O O
linking O O
LTR O O
deletion O O
mutants O O
to O O
the O O
chloramphenicol B-GENE B-GENE
acetyltransferase E-GENE E-GENE
( O O
CAT S-GENE S-GENE
) O O
gene O O
. O O
A O O
series O O
of O O
sequence O O
fragments O O
were O O
placed O O
5 O O
' O O
to O O
the O O
chloramphenicol B-GENE B-GENE
acetyltransferase E-GENE E-GENE
( O O
CAT S-GENE S-GENE
) O O
reporter O O
gene O O
and O O
ability O O
to O O
mediate O O
transcription O O
of O O
CAT S-GENE S-GENE
in O O
response O O
to O O
IFN B-GENE B-GENE
gamma E-GENE E-GENE
or O O
LPS O O
treatment O O
was O O
studied O O
following O O
transient O O
transfection O O
in O O
the O O
macrophage O O
- O O
like O O
cell O O
line O O
RAW O O
264 O O
. O O
7 O O
. O O
As O O
part O O
of O O
a O O
large O O
Dutch O O
prospective O O
multicenter O O
study O O
( O O
Netherlands O O
Cooperative O O
Study O O
on O O
the O O
Adequacy O O
of O O
Dialysis O O
- O O
2 O O
) O O
, O O
we O O
consecutively O O
included O O
all O O
new O O
patients O O
with O O
end O O
- O O
stage O O
renal O O
disease O O
for O O
whom O O
residual O O
renal O O
function O O
could O O
be O O
obtained O O
0 O O
to O O
4 O O
weeks O O
before O O
the O O
start O O
of O O
dialysis O O
therapy O O
. O O
Module O O
2 O O
of O O
RifA S-GENE S-GENE
lacks O O
a O O
beta B-GENE O
- I-GENE O
ketoacyl I-GENE O
: I-GENE O
acyl I-GENE B-GENE
carrier I-GENE I-GENE
protein I-GENE I-GENE
reductase E-GENE E-GENE
( O O
KR S-GENE S-GENE
) O O
domain O O
and O O
the O O
one O O
in O O
module O O
3 O O
has O O
an O O
apparently O O
inactive O O
NADPH B-GENE O
binding I-GENE O
motif E-GENE O
, O O
similar O O
to O O
one O O
found O O
in O O
the O O
Er B-GENE B-GENE
PKS E-GENE E-GENE
, O O
while O O
the O O
other O O
eight O O
KR B-GENE O
domains E-GENE O
of O O
the O O
Rf B-GENE B-GENE
PKS E-GENE E-GENE
should O O
be O O
functional O O
. O O
In O O
murine O O
cells O O
, O O
FPGS S-GENE S-GENE
expression O O
is O O
controlled O O
by O O
two O O
promoters O O
that O O
, O O
as O O
we O O
show O O
here O O
, O O
vary O O
substantially O O
in O O
their O O
efficiency O O
, O O
at O O
least O O
in O O
the O O
context O O
of O O
a O O
reporter O O
gene O O
assay O O
. O O
Should O O
we O O
use O O
thiazide O O
diuretics O O
in O O
hypertensive O O
patients O O
with O O
non O O
- O O
insulin S-GENE O
- O O
dependent O O
diabetes O O
mellitus O O
? O O
Reduced O O
glutathione O O
in O O
whole O O
blood O O
decreases O O
within O O
a O O
blood O O
Se O O
range O O
of O O
1 O O
. O O
01 O O
to O O
2 O O
. O O
28 O O
micrograms O O
in O O
the O O
high O O
Se O O
area O O
. O O
Sucrose O O
produced O O
in O O
source O O
leaves O O
is O O
the O O
predominant O O
carbon O O
source O O
for O O
developing O O
sink O O
tissues O O
in O O
most O O
higher O O
plants O O
. O O
A O O
personal O O
view O O
of O O
future O O
trends O O
in O O
the O O
field O O
of O O
immunoassay O O
concludes O O
this O O
review O O
. O O
In O O
accordance O O
with O O
Ann O O
Arbor O O
classification O O
, O O
we O O
observed O O
12 O O
CS O O
IA O O
( O O
21 O O
. O O
3 O O
% O O
) O O
, O O
2 O O
CS O O
IB O O
( O O
3 O O
. O O
5 O O
% O O
) O O
, O O
14 O O
CS O O
IIA O O
( O O
25 O O
. O O
4 O O
% O O
) O O
and O O
27 O O
CS O O
IIB O O
( O O
49 O O
. O O
7 O O
% O O
) O O
. O O
Numerous O O
genes O O
of O O
this O O
family O O
have O O
been O O
identified O O
in O O
animals O O
, O O
with O O
the O O
largest O O
number O O
found O O
in O O
vertebrates O O
. O O
The O O
GST S-GENE B-GENE
- O I-GENE
CBL S-GENE I-GENE
- O I-GENE
LZIP S-GENE I-GENE
fusion O I-GENE
protein O E-GENE
contains O O
a O O
binding O O
site O O
for O O
the O O
SH2 B-GENE B-GENE
domain E-GENE E-GENE
of O O
the O O
p85 B-GENE B-GENE
subunit E-GENE E-GENE
of O O
phosphatidylinositol B-GENE B-GENE
3 I-GENE I-GENE
- I-GENE I-GENE
kinase E-GENE E-GENE
, O O
which O O
mapped O O
to O O
Tyr731 O S-GENE
, O O
which O O
is O O
present O O
in O O
the O O
sequence O O
YEAM O S-GENE
. O O
We O O
have O O
previously O O
shown O O
that O O
UNC B-GENE B-GENE
- I-GENE I-GENE
4 E-GENE E-GENE
expression O O
in O O
the O O
VA O O
motor O O
neurons O O
specifies O O
the O O
wild O O
- O O
type O O
pattern O O
of O O
presynaptic O O
input O O
. O O
Significant O O
differences O O
were O O
observed O O
in O O
the O O
composition O O
of O O
nuclear O O
transcription O O
factors O O
bound O O
to O O
cis O O
- O O
elements O O
within O O
the O O
LDH B-GENE S-GENE
/ I-GENE O
C I-GENE O
proximal I-GENE O
promoter I-GENE O
region E-GENE O
in O O
somatic O O
versus O O
germ O O
cells O O
. O O
Above O O
this O O
transition O O
temperature O O
the O O
calcium O O
antagonist O O
lowers O O
fm O O
more O O
pronouncedly O O
than O O
below O O
. O O
( O O
1986 O O
) O O
described O O
optic O O
nerve O O
degenerations O O
in O O
patients O O
with O O
Alzheimer O O
' O O
s O O
disease O O
and O O
Sadun O O
published O O
a O O
dropout O O
of O O
retinal O O
ganglion O O
cells O O
that O O
range O O
from O O
30 O O
% O O
to O O
60 O O
% O O
. O O
It O O
has O O
become O O
clear O O
that O O
there O O
is O O
not O O
one O O
mediator O O
responsible O O
for O O
ALI O O
, O O
but O O
rather O O
a O O
complex O O
interplay O O
exists O O
between O O
diverse O O
proinflammatory O O
( O O
e O O
. O O
g O O
. O O
, O O
lipopolysaccharide O O
, O O
complement O O
products O O
, O O
cytocains O O
, O O
chemocains O O
, O O
reactive O O
oxygen O O
species O O
and O O
arachidonic O O
acid O O
products O O
) O O
and O O
anti O O
- O O
inflammatory O O
( O O
IL B-GENE O
- I-GENE O
10 E-GENE O
, O O
IL B-GENE O
- I-GENE O
1 I-GENE O
- I-GENE O
RA E-GENE O
, O O
PGI2 O O
) O O
mediators O O
. O O
We O O
then O O
supplemented O O
these O O
spliceosomes O O
with O O
purified O O
proteins O O
or O O
yeast O O
extract O O
fractions O O
as O O
a O O
functional O O
assay O O
for O O
second O O
- O O
step O O
splicing O O
factors O O
. O O
Contrast O O
radiography O O
appears O O
to O O
be O O
an O O
especially O O
inaccurate O O
method O O
to O O
document O O
PUD O O
in O O
CF O O
because O O
the O O
duodenal O O
mucosa O O
typically O O
appears O O
nodular O O
and O O
distorted O O
with O O
poor O O
definition O O
of O O
the O O
mucosal O O
folds O O
. O O
We O O
now O O
show O O
that O O
the O O
FRAP S-GENE B-GENE
Ser2035 O I-GENE
- O I-GENE
- O I-GENE
> O I-GENE
Ala O I-GENE
mutant O E-GENE
displays O O
similar O O
binding O O
affinity O O
when O O
compared O O
with O O
the O O
wild O O
- O O
type O O
protein O O
, O O
whereas O O
all O O
other O O
mutations O O
at O O
this O O
site O O
, O O
including O O
mimics O O
of O O
phosphoserine O O
, O O
abolish O O
binding O O
, O O
presumably O O
due O O
to O O
either O O
unfavorable O O
steric O O
interactions O O
or O O
induced O O
conformational O O
changes O O
. O O
A O O
Brassica O O
cDNA O O
clone O O
encoding O O
a O O
bifunctional O B-GENE
hydroxymethylpyrimidine B-GENE I-GENE
kinase E-GENE E-GENE
/ O O
thiamin B-GENE O
- I-GENE O
phosphate I-GENE O
pyrophosphorylase E-GENE O
involved O O
in O O
thiamin O O
biosynthesis O O
. O O
Titres O O
of O O
antistreptolysin B-GENE O
O E-GENE O
in O O
mothers O O
of O O
children O O
affected O O
with O O
Down O O
' O O
s O O
syndrome O O
. O O
Differential O O
decay O O
of O O
a O O
polycistronic O O
Escherichia O O
coli O O
transcript O O
is O O
initiated O O
by O O
RNaseE S-GENE O
- O O
dependent O O
endonucleolytic O O
processing O O
. O O
Defects O O
in O O
RT6 S-GENE S-GENE
expression O O
coincide O O
with O O
increased O O
susceptibility O O
in O O
animal O O
models O O
for O O
insulin S-GENE O
- O O
dependent O O
diabetes O O
mellitus O O
and O O
other O O
autoimmune O O
diseases O O
. O O
By O O
means O O
of O O
early O O
detection O O
and O O
correction O O
of O O
the O O
possible O O
causes O O
, O O
the O O
goal O O
of O O
increasing O O
therapeutic O O
efficacy O O
can O O
be O O
achieved O O
. O O
We O O
have O O
previously O O
described O O
the O O
partial O O
purification O O
of O O
Ap4A B-GENE B-GENE
hydrolase E-GENE E-GENE
from O O
S O O
. O O
pombe O O
[ O O
Robinson O O
, O O
de O O
la O O
Pena O O
and O O
Barnes O O
( O O
1993 O O
) O O
Biochim O O
. O O
Effect O O
of O O
a O O
new O O
positive O O
inotropic O O
agent O O
( O O
OPC O B-GENE
- O I-GENE
8212 O E-GENE
) O O
on O O
intracellular O O
potential O O
of O O
isolated O O
canine O O
ventricular O O
papillary O O
muscle O O
The O O
unc B-GENE O
- I-GENE O
101 E-GENE O
, O O
sli B-GENE B-GENE
- I-GENE I-GENE
1 E-GENE E-GENE
, O O
and O O
rok B-GENE B-GENE
- I-GENE I-GENE
1 I-GENE I-GENE
genes E-GENE E-GENE
encode O O
a O O
distinct O O
set O O
of O O
negative O O
regulators O O
of O O
vulval O O
differentiation O O
. O O
Thirty O O
- O O
seven O O
patients O O
with O O
severe O O
temporal O O
lobe O O
epilepsy O O
were O O
studied O O
interictally O O
with O O
[ O O
18F O O
] O O
fluorodeoxyglucose O O
- O O
PET O O
in O O
each O O
of O O
three O O
conditions O O
: O O
resting O O
, O O
during O O
emotional O O
speech O O
, O O
and O O
while O O
performing O O
a O O
visual O O
recognition O O
task O O
. O O
SYC1 S-GENE S-GENE
( O O
suppressor B-GENE O
of I-GENE O
yeast I-GENE B-GENE
cbf5 I-GENE I-GENE
- I-GENE I-GENE
1 E-GENE E-GENE
) O O
was O O
identified O O
as O O
a O O
multicopy O O
suppressor O O
of O O
cbf5 B-GENE B-GENE
- I-GENE I-GENE
1 E-GENE E-GENE
and O O
subsequently O O
was O O
found O O
to O O
be O O
identical O O
to O O
RRN3 S-GENE S-GENE
, O O
an O O
RNA B-GENE B-GENE
polymerase I-GENE I-GENE
I I-GENE I-GENE
transcription I-GENE I-GENE
factor E-GENE E-GENE
. O O
Newly O O
hatched O O
F1 O O
nymphs O O
of O O
Aiolopus O O
thalassinus O O
( O O
Fabr O O
. O O
) O O
were O O
fed O O
on O O
food O O
treated O O
with O O
various O O
concentrations O O
of O O
HgCl2 O O
, O O
CdCl2 O O
, O O
and O O
PbCl2 O O
until O O
the O O
end O O
of O O
adult O O
life O O
. O O
Neuronal O O
activity O O
of O O
58 O O
dopaminergic O O
( O O
DA O O
) O O
and O O
200 O O
non O O
- O O
dopaminergic O O
( O O
non O O
- O O
DA O O
) O O
neurons O O
in O O
the O O
ventral O O
tegmental O O
area O O
( O O
VTA O O
) O O
of O O
female O O
monkeys O O
was O O
recorded O O
, O O
and O O
correlation O O
to O O
bar O O
press O O
feeding O O
, O O
sensory O O
stimulation O O
and O O
change O O
in O O
motivation O O
was O O
investigated O O
. O O
Both O O
sequence O O
analysis O O
and O O
restriction O O
fragment O O
length O O
polymorphism O O
analysis O O
revealed O O
a O O
high O O
degree O O
of O O
sequence O O
( O O
97 O O
% O O
homology O O
) O O
and O O
structural O O
similarity O O
among O O
members O O
of O O
the O O
ART S-GENE O
- O O
CH S-GENE O
family O O
, O O
indicating O O
their O O
common O O
origin O O
and O O
recent O O
penetration O O
into O O
chicken O O
DNA O O
. O O
Three O O
of O O
these O O
positions O O
are O O
novel O O
in O O
that O O
they O O
had O O
not O O
been O O
identified O O
to O O
be O O
important O O
for O O
binding O O
PC O O
by O O
previous O O
crystallographic O O
analysis O O
. O O
We O O
demonstrate O O
inhibition O O
of O O
2 O O
- O O
deoxyglucose O O
uptake O O
in O O
isolated O O
primary O O
rat O O
adipocytes O O
and O O
3T3 O O
- O O
L1 O O
adipocytes O O
pretreated O O
with O O
U73122 O O
. O O
The O O
elevated O O
levels O O
of O O
inositol O O
phosphates O O
resulting O O
from O O
N B-GENE O
( I-GENE O
epi I-GENE O
) I-GENE O
alpha I-GENE O
qQ209L E-GENE O
expression O O
were O O
similar O O
to O O
those O O
obtained O O
with O O
carbachol O O
activation O O
of O O
the O O
M1 B-GENE B-GENE
muscarinic I-GENE I-GENE
acetylcholine I-GENE I-GENE
receptor E-GENE E-GENE
. O O
In O O
addition O O
, O O
wild O O
- O O
type O O
and O O
mutated O O
DNA O O
templates O O
were O O
used O O
as O O
probes O O
in O O
DNase B-GENE O
I E-GENE O
protection O O
experiments O O
to O O
determine O O
sites O O
of O O
protein O O
- O O
DNA O O
interaction O O
. O O
We O O
tested O O
the O O
hypothesis O O
that O O
PEH O O
is O O
associated O O
with O O
reductions O O
in O O
TPR O O
and O O
sympathetic O O
nerve O O
activity O O
( O O
SNA O O
) O O
. O O
Salt O O
wars O O
. O O
RESULTS O O
: O O
BMK B-GENE O
- I-GENE O
1 E-GENE O
and O O
other O O
19 O O
contents O O
significantly O O
decreased O O
depolarization O O
parameters O O
Vmax O O
, O O
APA O O
, O O
OS O O
, O O
and O O
MDP O O
, O O
which O O
was O O
similar O O
to O O
that O O
of O O
TTX S-GENE O
and O O
different O O
from O O
that O O
of O O
Nim O O
and O O
BaCl2 O O
. O O
In O O
the O O
latter O O
, O O
the O O
cells O O
and O O
adjacent O O
matrix O O
had O O
several O O
characteristics O O
of O O
fibrocartilage O O
, O O
including O O
chondrocytes O O
. O O
Mannich O O
bases O O
of O O
vanillin O O
oxime O O
. O O
All O O
exon O O
/ O O
intron O O
splice O O
junctions O O
follow O O
the O O
GT O O
/ O O
AG O O
rule O O
. O O
Previous O O
work O O
has O O
shown O O
that O O
glucose O O
repression O O
of O O
PRB1 S-GENE S-GENE
transcription O O
is O O
not O O
mediated O O
by O O
HXK2 S-GENE S-GENE
or O O
by O O
the O O
SNF1 S-GENE S-GENE
, O O
SNF4 S-GENE S-GENE
, O O
and O O
SNF6 B-GENE B-GENE
genes E-GENE E-GENE
( O O
C O O
. O O
Comparison O O
of O O
the O O
encoded O O
ERCC3Dm B-GENE B-GENE
protein E-GENE E-GENE
with O O
the O O
homologous O O
proteins O O
of O O
mouse O O
and O O
man O O
shows O O
a O O
strong O O
amino O O
acid O O
conservation O O
( O O
71 O O
% O O
identity O O
) O O
, O O
especially O O
in O O
the O O
postulated O O
DNA O O
binding O O
region O O
and O O
seven O O
' B-GENE O
helicase I-GENE O
' I-GENE O
domains E-GENE O
. O O
The O O
pyridostigmine O O
inhibited O O
AChE S-GENE O
recovered O O
only O O
in O O
the O O
100 O O
mumol O O
kg O O
- O O
1 O O
kg O O
oxime O O
groups O O
at O O
the O O
end O O
of O O
the O O
experiment O O
. O O
In O O
the O O
case O O
of O O
a O O
moderate O O
buccal O O
Class O O
II O O
tendency O O
, O O
55 O O
% O O
of O O
the O O
molars O O
were O O
in O O
a O O
Class O O
I O O
relationship O O
when O O
evaluated O O
from O O
the O O
lingual O O
side O O
, O O
whereas O O
45 O O
% O O
belonged O O
to O O
mild O O
( O O
1st O O
degrees O O
) O O
Class O O
II O O
with O O
molar O O
rotations O O
present O O
in O O
81 O O
% O O
of O O
the O O
cases O O
. O O
Mutation O O
of O O
this O O
threonine O O
to O O
isoleucine O O
had O O
no O O
observable O O
effect O O
on O O
either O O
nuclear O O
localization O O
of O O
E1 S-GENE S-GENE
or O O
DNA O O
replication O O
of O O
the O O
intact O O
viral O O
genome O O
. O O
Serum B-GENE B-GENE
prolactin E-GENE E-GENE
and O O
oestradiol O O
levels O O
at O O
different O O
stages O O
of O O
puberty O O
. O O
This O O
suggests O O
that O O
the O O
duration O O
of O O
varicocele O O
per O O
se O O
could O O
affect O O
DHT O O
seminal O O
plasma O O
levels O O
. O O
Left O O
ventricular O O
responses O O
to O O
dopamine O O
in O O
dilated O O
cardiomyopathy O O
as O O
assessed O O
by O O
two O O
- O O
dimensional O O
echocardiography O O
and O O
compared O O
with O O
findings O O
of O O
thallium O O
- O O
201 O O
scintigraphy O O
. O O
Detailed O O
comparison O O
of O O
the O O
urinary O O
excretion O O
of O O
purines O O
in O O
a O O
patient O O
with O O
the O O
Lesch O O
- O O
Nyhan O O
syndrome O O
and O O
a O O
control O O
subject O O
. O O
This O O
enzyme O O
is O O
distinct O O
from O O
other O O
known O O
E3s S-GENE S-GENE
, O O
including O O
E3 B-GENE B-GENE
alpha E-GENE E-GENE
/ O O
UBR1 S-GENE S-GENE
, O O
E3 B-GENE B-GENE
beta E-GENE E-GENE
, O O
and O O
E6 B-GENE B-GENE
- I-GENE I-GENE
AP E-GENE E-GENE
. O O
This O O
evidence O O
, O O
together O O
with O O
the O O
ability O O
of O O
a O O
carboxyl O O
- O O
terminal O O
coding O O
sequence O O
starting O O
from O O
the O O
BamHI B-GENE B-GENE
site E-GENE E-GENE
to O O
complement O O
a O O
shy1 B-GENE B-GENE
mutant E-GENE E-GENE
, O O
suggests O O
that O O
the O O
Shy1p S-GENE S-GENE
contains O O
two O O
domains O O
that O O
can O O
be O O
separately O O
expressed O O
to O O
form O O
a O O
functional O O
protein O O
. O O
The O O
zinc B-GENE O
finger I-GENE O
protein I-GENE O
A20 E-GENE S-GENE
is O O
a O O
tumor B-GENE B-GENE
necrosis I-GENE I-GENE
factor E-GENE E-GENE
( O O
TNF S-GENE S-GENE
) O O
- O O
and O O
interleukin B-GENE B-GENE
1 E-GENE E-GENE
( O O
IL B-GENE B-GENE
- I-GENE I-GENE
1 E-GENE E-GENE
) O O
- O O
inducible O O
protein O O
that O O
negatively O O
regulates O O
nuclear B-GENE O
factor I-GENE B-GENE
- I-GENE I-GENE
kappa I-GENE I-GENE
B E-GENE E-GENE
( O O
NF B-GENE B-GENE
- I-GENE I-GENE
kappaB E-GENE E-GENE
) O O
- O O
dependent O O
gene O O
expression O O
. O O
A O O
visibly O O
distinct O O
muscular O O
hypertrophy O O
( O O
mh O O
) O O
, O O
commonly O O
known O O
as O O
double O O
muscling O O
, O O
occurs O O
with O O
high O O
frequency O O
in O O
the O O
Belgian O O
Blue O O
and O O
Piedmontese O O
cattle O O
breeds O O
. O O
For O O
the O O
population O O
of O O
patients O O
with O O
melanoma O O
levels O O
III O O
and O O
IV O O
significant O O
differences O O
in O O
survival O O
rate O O
were O O
associated O O
with O O
thickness O O
( O O
less O O
than O O
2 O O
mm O O
or O O
greater O O
than O O
or O O
equal O O
to O O
2 O O
mm O O
; O O
p O O
less O O
than O O
0 O O
, O O
001 O O
) O O
, O O
though O O
not O O
with O O
level O O
. O O
At O O
least O O
one O O
such O O
complex O O
is O O
eliminated O O
by O O
preincubating O O
the O O
nuclear O O
extract O O
with O O
an O O
antibody O O
with O O
broad O O
cross O O
- O O
reactivity O O
with O O
Ets B-GENE B-GENE
- I-GENE I-GENE
1 E-GENE E-GENE
and O O
Ets B-GENE B-GENE
- I-GENE I-GENE
2 I-GENE I-GENE
proteins E-GENE E-GENE
, O O
thus O O
confirming O O
that O O
an O O
ETS B-GENE B-GENE
transcription I-GENE I-GENE
factor I-GENE E-GENE
( I-GENE O
s I-GENE O
) E-GENE O
recognizes O O
the O O
- O O
12 O O
motif O O
. O O
Mutant O B-GENE
beta2 B-GENE I-GENE
- I-GENE I-GENE
adrenergic I-GENE I-GENE
receptors E-GENE E-GENE
with O O
a O O
Tyr O O
- O O
to O O
- O O
Phe O O
substitution O O
at O O
Tyr O O
- O O
350 O O
do O O
not O O
display O O
agonist O O
- O O
induced O O
desensitization O O
, O O
Src S-GENE S-GENE
recruitment O O
, O O
or O O
Src S-GENE S-GENE
activation O O
. O O
Role O O
of O O
distinct O O
mitogen B-GENE B-GENE
- I-GENE I-GENE
activated I-GENE I-GENE
protein I-GENE I-GENE
kinase E-GENE E-GENE
pathways O O
and O O
cooperation O O
between O O
Ets B-GENE B-GENE
- I-GENE I-GENE
2 E-GENE E-GENE
, O O
ATF B-GENE B-GENE
- I-GENE I-GENE
2 E-GENE E-GENE
, O O
and O O
Jun B-GENE B-GENE
family I-GENE E-GENE
members E-GENE O
in O O
human B-GENE B-GENE
urokinase I-GENE I-GENE
- I-GENE I-GENE
type I-GENE I-GENE
plasminogen I-GENE I-GENE
activator I-GENE I-GENE
gene E-GENE E-GENE
induction O O
by O O
interleukin B-GENE B-GENE
- I-GENE I-GENE
1 E-GENE E-GENE
and O O
tetradecanoyl O O
phorbol O O
acetate O O
. O O
Immunoblot O O
analysis O O
of O O
purified O O
and O O
protease O O
- O O
digested O O
intracellular O O
mature O O
virus O O
( O O
IMV O S-GENE
) O O
and O O
extracellular O O
enveloped O O
virus O O
( O O
EEV O O
) O O
showed O O
that O O
the O O
A36R B-GENE B-GENE
proteins E-GENE E-GENE
were O O
present O O
on O O
the O O
surface O O
of O O
EEV O O
with O O
type O O
II O O
membrane O O
topology O O
, O O
but O O
were O O
absent O O
from O O
IMV O O
. O O
Here O O
we O O
demonstrate O O
that O O
several O O
genes O O
associated O O
with O O
NHEJ O S-GENE
perform O O
essential O O
functions O O
in O O
the O O
repair O O
of O O
endonuclease O O
- O O
induced O O
DSBs O O
in O O
vivo O O
. O O
The O O
failure O O
suggests O O
that O O
these O O
assembly O O
competent O O
but O O
complementation O O
- O O
negative O O
alpha O O
mutants O O
lack O O
an O O
as O O
yet O O
unidentified O O
function O O
( O O
s O O
) O O
. O O
Psychopathological O O
, O O
vegetative O O
, O O
and O O
vital O O
parameters O O
were O O
assessed O O
every O O
hour O O
. O O
RESULTS O O
: O O
Considering O O
an O O
inulin O O
clearance O O
of O O
less O O
than O O
80 O O
ml O O
/ O O
min O O
/ O O
1 O O
. O O
73 O O
m2 O O
, O O
the O O
cut O O
- O O
off O O
value O O
for O O
serum O O
creatinine O O
was O O
11 O O
. O O
5 O O
mumol O O
/ O O
liter O O
for O O
men O O
and O O
90 O O
mumol O O
/ O O
liter O O
for O O
women O O
. O O
These O O
data O O
may O O
indicate O O
redundancy O O
between O O
members O O
of O O
the O O
NGFI B-GENE B-GENE
- I-GENE I-GENE
B E-GENE E-GENE
/ O O
Nurr1 S-GENE S-GENE
/ O O
Nor1 S-GENE B-GENE
subfamily O E-GENE
and O O
could O O
explain O O
why O O
no O O
phenotypic O O
disturbances O O
have O O
yet O O
been O O
found O O
in O O
mice O O
in O O
which O O
the O O
NGFI B-GENE B-GENE
- I-GENE I-GENE
B I-GENE I-GENE
gene E-GENE E-GENE
has O O
been O O
inactivated O O
. O O
Manual O O
sample O O
clean O O
- O O
up O O
procedures O O
as O O
well O O
as O O
the O O
addition O O
of O O
an O O
internal O O
standard O O
are O O
not O O
needed O O
. O O
To O O
directly O O
address O O
this O O
issue O O
, O O
we O O
used O O
a O O
tetracycline O O
- O O
regulated O O
system O O
in O O
human O O
U2OS O O
osteosarcoma O O
cells O O
and O O
thus O O
found O O
that O O
BCL6 S-GENE S-GENE
mediates O O
growth O O
suppression O O
associated O O
with O O
impaired O O
S O O
phase O O
progression O O
and O O
apoptosis O O
. O O
TAAG O B-GENE
sites O E-GENE
that O O
serve O O
as O O
functional O O
late O O
promoters O O
in O O
OpMNPV O S-GENE
were O O
found O O
to O O
mediate O O
transcription O O
initiation O O
at O O
only O O
basal O O
levels O O
in O O
the O O
context O O
of O O
the O O
AcMNPV O B-GENE
genome O E-GENE
, O O
suggesting O O
that O O
late O O
promoter O O
activation O O
may O O
be O O
virus O O
specific O O
within O O
the O O
family O O
Baculoviridae O O
. O O
Stability O O
of O O
125 O O
I O O
- O O
labeled O O
insulin S-GENE O
used O O
in O O
radioimmunoassay O O
of O O
insulin S-GENE S-GENE
. O O
In O O
absence O O
of O O
i O O
. O O
m O O
. O O
medication O O
, O O
levels O O
over O O
1 O O
, O O
000 O O
U O O
must O O
be O O
carefully O O
screened O O
in O O
order O O
to O O
rule O O
out O O
SNM O O
or O O
organic O O
pathology O O
associated O O
. O O
Paclitaxel O O
caused O O
a O O
rapid O O
and O O
transient O O
increase O O
in O O
c B-GENE B-GENE
- I-GENE I-GENE
Jun I-GENE I-GENE
NH2 I-GENE I-GENE
- I-GENE I-GENE
terminal I-GENE I-GENE
kinase E-GENE E-GENE
( O O
JNK S-GENE S-GENE
) O O
activity O O
, O O
a O O
proposed O O
mediator O O
of O O
stress O O
activation O O
pathways O O
. O O
These O O
results O O
indicate O O
that O O
H B-GENE B-GENE
- I-GENE I-GENE
2RIIBP E-GENE E-GENE
( O O
i O O
) O O
is O O
a O O
member O O
of O O
the O O
superfamily O O
of O O
nuclear B-GENE O
hormone I-GENE O
receptors E-GENE O
and O O
( O O
ii O O
) O O
may O O
regulate O O
not O O
only O O
MHC B-GENE B-GENE
class I-GENE I-GENE
I I-GENE I-GENE
genes E-GENE E-GENE
but O O
also O O
genes O O
containing O O
the O O
ERE O S-GENE
and O O
related O O
sequences O O
. O O
Two O O
courses O O
of O O
chemotherapy O O
( O O
CBCDA O O
+ O O
VDS O O
) O O
failed O O
to O O
gain O O
any O O
improvement O O
, O O
and O O
the O O
pain O O
resulting O O
from O O
recurrent O O
bone O O
metastases O O
was O O
managed O O
mainly O O
by O O
the O O
administration O O
of O O
the O O
best O O
supportive O O
care O O
. O O
We O O
show O O
here O O
that O O
Spb1p S-GENE S-GENE
is O O
able O O
to O O
bind O O
[ O O
( O O
3 O O
) O O
H O O
] O O
AdoMet O O
in O O
vitro O O
, O O
suggesting O O
that O O
it O O
is O O
a O O
novel O O
methylase O O
, O O
whose O O
possible O O
substrates O O
will O O
be O O
discussed O O
. O O
RESULTS O O
: O O
Lateral O O
PF O O
OA O O
was O O
more O O
common O O
than O O
medial O O
PF O O
OA O O
( O O
P O O
< O O
0 O O
. O O
0001 O O
) O O
. O O
CONCLUSION O O
: O O
Urbanisation O O
is O O
associated O O
with O O
an O O
increase O O
in O O
the O O
prevalence O O
rates O O
of O O
some O O
risk O O
behaviours O O
. O O
However O O
, O O
additional O O
studies O O
on O O
cell O O
lines O O
and O O
whole O O
animals O O
are O O
required O O
to O O
understand O O
GnRH S-GENE S-GENE
signaling O O
in O O
the O O
context O O
of O O
other O O
hormones O O
during O O
the O O
reproductive O O
cycle O O
of O O
mouse O O
and O O
human O O
. O O
Serum B-GENE O
angiogenin E-GENE O
concentrations O O
in O O
young O O
patients O O
with O O
diabetes O O
mellitus O O
. O O
This O O
duplicated O O
genomic O O
region O O
is O O
also O O
linked O O
tightly O O
to O O
D1Z2 S-GENE S-GENE
, O O
a O O
genetic O O
marker O O
containing O O
a O O
highly O O
polymorphic O O
VNTR O O
( O O
variable O O
number O O
tandem O O
repeat O O
) O O
consisting O O
of O O
an O O
unusual O O
40 O O
- O O
bp O O
reiterated O O
sequence O O
. O O
ATF6 S-GENE S-GENE
, O O
a O O
basic B-GENE O
- I-GENE O
leucine I-GENE O
zipper I-GENE O
protein E-GENE O
, O O
was O O
isolated O O
by O O
binding O O
to O O
SRF S-GENE S-GENE
and O O
in O O
particular O O
to O O
its O O
transcriptional O O
activation O O
domain O O
. O O
Cetn1 S-GENE S-GENE
possesses O O
the O O
sequence O O
features O O
of O O
an O O
expressed O O
retroposon O O
: O O
the O O
gene O O
lacks O O
introns O O
, O O
the O O
open O O
reading O O
frame O O
is O O
not O O
interrupted O O
by O O
stop O O
codons O O
, O O
and O O
the O O
coding O O
region O O
is O O
flanked O O
by O O
a O O
pair O O
of O O
direct O O
repeats O O
. O O
The O O
largest O O
one O O
probably O O
corresponds O O
to O O
the O O
precursor O O
form O O
of O O
PS2 S-GENE O
in O O
E O O
. O O
coli O O
. O O
The O O
Aspergillus B-GENE B-GENE
uvsH I-GENE I-GENE
gene E-GENE E-GENE
encodes O O
a O O
product O O
homologous O O
to O O
yeast B-GENE O
RAD18 E-GENE S-GENE
and O O
Neurospora B-GENE O
UVS I-GENE B-GENE
- I-GENE I-GENE
2 E-GENE E-GENE
. O O
On O O
average O O
these O O
maximum O O
potency O O
estimates O O
were O O
within O O
one O O
order O O
of O O
magnitude O O
of O O
the O O
inverse O O
maximum O O
dose O O
tested O O
. O O
VAV S-GENE S-GENE
and O O
SOCS1 S-GENE S-GENE
form O O
a O O
protein O O
complex O O
through O O
interactions O O
between O O
the O O
VAV B-GENE B-GENE
NH I-GENE E-GENE
( I-GENE O
2 I-GENE O
) I-GENE O
- I-GENE O
terminal I-GENE O
regulatory I-GENE O
region E-GENE O
and O O
the O O
SH2 B-GENE B-GENE
domain E-GENE E-GENE
of O O
SOCS1 S-GENE S-GENE
in O O
a O O
phosphotyrosine O O
- O O
independent O O
manner O O
. O O
The O O
originally O O
embryonic B-GENE O
gamma I-GENE O
- I-GENE O
globin I-GENE O
locus E-GENE O
duplicated O O
and O O
acquired O O
a O O
novel O O
( O O
fetal O O
) O O
pattern O O
of O O
expression O O
in O O
a O O
defined O O
time O O
period O O
( O O
55 O O
- O O
40 O O
million O O
years O O
ago O O
) O O
during O O
primate O O
phylogeny O O
. O O
Clostridium O O
botulinum O O
in O O
marine O O
sediment O O
Northern O O
blot O O
analysis O O
with O O
GPR37 S-GENE O
probes O O
revealed O O
a O O
main O O
3 O O
. O O
8 O O
- O O
kb O O
mRNA O O
and O O
a O O
less O O
abundant O O
8 O O
- O O
kb O O
mRNA O O
, O O
both O O
expressed O O
in O O
human O O
brain O O
tissues O O
, O O
particularly O O
in O O
corpus O O
callosum O O
, O O
medulla O O
, O O
putamen O O
, O O
and O O
caudate O O
nucleus O O
. O O
Our O O
studies O O
indicate O O
no O O
single O O
trans O O
- O O
acting O O
factor O O
is O O
absolutely O O
essential O O
for O O
enhancer O O
activity O O
, O O
and O O
that O O
the O O
enhancer O O
activity O O
of O O
MerI S-GENE S-GENE
is O O
mediated O O
via O O
a O O
combinatorial O O
and O O
additive O O
mechanism O O
. O O
In O O
human O O
WI38 O O
cells O O
, O O
the O O
E1B B-GENE B-GENE
19K I-GENE I-GENE
gene I-GENE E-GENE
mutant E-GENE O
viruses O O
had O O
a O O
substantial O O
growth O O
advantage O O
over O O
the O O
wild O O
- O O
type O O
virus O O
, O O
yielding O O
500 O O
- O O
fold O O
- O O
higher O O
titers O O
. O O
To O O
elucidate O O
the O O
mechanism O O
of O O
these O O
hormonal O O
effects O O
, O O
we O O
have O O
studied O O
the O O
regulatory O O
regions O O
of O O
the O O
PFK B-GENE B-GENE
- I-GENE I-GENE
2 I-GENE I-GENE
gene E-GENE E-GENE
in O O
transfection O O
experiments O O
. O O
Consequently O O
, O O
during O O
the O O
evolution O O
of O O
mammals O O
, O O
it O O
is O O
the O O
CKbeta4GT B-GENE B-GENE
- I-GENE I-GENE
I I-GENE I-GENE
gene E-GENE E-GENE
lineage O O
that O O
has O O
been O O
recruited O O
for O O
the O O
biosynthesis O O
of O O
lactose O O
. O O
Furthermore O O
, O O
disruption O O
of O O
pcr1 S-GENE S-GENE
reduced O O
expression O O
of O O
fbp1 S-GENE S-GENE
, O O
a O O
glucose O B-GENE
- O I-GENE
repressible O I-GENE
gene O E-GENE
negatively O O
regulated O O
by O O
PKA S-GENE S-GENE
. O O
In O O
solution O O
, O O
[ O O
( O O
125 O O
) O O
I O O
] O O
- O O
labeled O O
ankyrin S-GENE O
was O O
found O O
by O O
ND O B-GENE
- O I-GENE
PAGE3 O E-GENE
to O O
enhance O O
the O O
affinity O O
of O O
spectrin S-GENE O
self O O
- O O
association O O
by O O
10 O O
- O O
fold O O
. O O
Transcription O O
analysis O O
of O O
the O O
EcoRI B-GENE O
D I-GENE O
region E-GENE O
of O O
the O O
baculovirus O O
Autographa O O
californica O O
nuclear O O
polyhedrosis O O
virus O O
identifies O O
an O O
early O O
4 O O
- O O
kilobase O O
RNA O O
encoding O O
the O O
essential O O
p143 B-GENE B-GENE
gene E-GENE E-GENE
. O O
Anesthesia O O
in O O
the O O
radical O O
surgery O O
of O O
arteriosclerotic O O
coronary O O
disease O O
5 O O
Intravenous O O
prizidilol O O
hydrochloride O O
decreases O O
resting O O
blood O O
pressure O O
and O O
left O O
ventricular O O
area O O
, O O
increases O O
pulse O O
rate O O
and O O
has O O
virtually O O
no O O
effect O O
on O O
left O O
ventricular O O
ejection O O
fraction O O
. O O
In O O
this O O
study O O
, O O
the O O
subcellular O O
location O O
, O O
domain O O
structure O O
, O O
and O O
biochemical O O
function O O
of O O
metaxin S-GENE O
were O O
investigated O O
. O O
The O O
human O O
cDNA O O
was O O
cloned O O
and O O
sequenced O O
; O O
it O O
was O O
shown O O
to O O
have O O
an O O
open O O
reading O O
frame O O
encoding O O
a O O
296 O O
- O O
amino O O
- O O
acid O O
protein O O
in O O
which O O
could O O
be O O
identified O O
four O O
peptides O O
previously O O
identified O O
by O O
micro O O
- O O
sequencing O O
purified O O
protein O O
. O O
Our O O
aim O O
was O O
to O O
evaluate O O
this O O
technique O O
by O O
cross O O
- O O
calibrating O O
the O O
DXA O O
method O O
with O O
the O O
carcass O O
chemical O O
analysis O O
in O O
a O O
heterogeneous O O
population O O
of O O
nondiabetic O O
Wistar O O
and O O
diabetic O O
GK O O
rats O O
( O O
21 O O
animals O O
were O O
used O O
for O O
precision O O
error O O
and O O
reproducibility O O
determinations O O
and O O
26 O O
were O O
used O O
for O O
accuracy O O
studies O O
) O O
. O O
Flux O O
of O O
the O O
paramyxovirus O O
hemagglutinin S-GENE O
- O O
neuraminidase S-GENE O
glycoprotein O O
through O O
the O O
endoplasmic O O
reticulum O O
activates O O
transcription O O
of O O
the O O
GRP78 S-GENE B-GENE
- O I-GENE
BiP S-GENE I-GENE
gene O E-GENE
. O O
The O O
preference O O
for O O
third O O
base O O
codon O O
in O O
Y O O
position O O
prolines O O
is O O
U O O
for O O
the O O
alpha B-GENE B-GENE
2 I-GENE E-GENE
( I-GENE O
VI I-GENE O
) I-GENE O
collagen E-GENE O
as O O
it O O
is O O
for O O
the O O
human B-GENE B-GENE
fibrillar I-GENE I-GENE
collagen I-GENE I-GENE
genes E-GENE E-GENE
. O O
Small O O
cell O O
tumors O O
in O O
children O O
: O O
contribution O O
to O O
the O O
solution O O
of O O
the O O
problem O O
of O O
differential O O
diagnosis O O
with O O
immunohistochemistry O O
and O O
electron O O
microscopy O O
Detonation O O
- O O
traumatic O O
load O O
during O O
military O O
service O O
In O O
static O O
conditions O O
, O O
body O O
sway O O
was O O
assessed O O
using O O
a O O
conventional O O
force O O
platform O O
with O O
eyes O O
open O O
and O O
with O O
eyes O O
closed O O
. O O
Soggy S-GENE O
, O O
a O O
spermatocyte O O
- O O
specific O O
gene O O
, O O
lies O O
3 O O
. O O
8 O O
kb O O
upstream O O
of O O
and O O
antipodal O O
to O O
TEAD B-GENE B-GENE
- I-GENE I-GENE
2 E-GENE E-GENE
, O O
a O O
transcription O O
factor O O
expressed O O
at O O
the O O
beginning O O
of O O
mouse O O
development O O
. O O
Teratospermia O O
is O O
therefore O O
an O O
important O O
factor O O
in O O
evaluating O O
fertilization O O
capacity O O
. O O
Results O O
of O O
the O O
study O O
suggest O O
that O O
Chinese O O
medicine O O
use O O
among O O
this O O
population O O
depends O O
on O O
health O O
conditions O O
, O O
and O O
that O O
having O O
a O O
regular O O
source O O
of O O
care O O
for O O
Chinese O O
medicine O O
as O O
well O O
as O O
a O O
preference O O
for O O
Chinese O O
medicine O O
are O O
two O O
predictors O O
for O O
its O O
use O O
. O O
The O O
greatest O O
risk O O
of O O
preterm O O
prelabour O O
rupture O O
of O O
membranes O O
( O O
PPROM O O
) O O
is O O
preterm O O
delivery O O
. O O
DISCUSSION O O
: O O
The O O
higher O O
absolute O O
knee O O
extension O O
strength O O
measures O O
of O O
leg O O
and O O
the O O
similar O O
extension O O
strength O O
of O O
the O O
trunk O O
in O O
the O O
obese O O
sample O O
compared O O
to O O
the O O
lean O O
might O O
be O O
explained O O
by O O
the O O
training O O
effect O O
of O O
weight O O
bearing O O
and O O
support O O
of O O
a O O
larger O O
body O O
mass O O
. O O
Residues O O
of O O
Stauffer O O
R O O
- O O
3828 O O
and O O
its O O
oxygen O O
analogue O O
in O O
the O O
body O O
tissues O O
of O O
cattle O O
fed O O
R O O
- O O
3828 O O
in O O
the O O
diet O O
. O O
The O O
goals O O
of O O
these O O
experiments O O
were O O
to O O
determine O O
whether O O
lactational O O
anestrus O O
would O O
be O O
prolonged O O
by O O
a O O
48 O O
- O O
h O O
fast O O
at O O
days O O
13 O O
and O O
14 O O
postpartum O O
( O O
pp O O
) O O
and O O
, O O
if O O
so O O
, O O
to O O
determine O O
whether O O
this O O
effect O O
could O O
be O O
reversed O O
by O O
treatment O O
with O O
the O O
Ob B-GENE B-GENE
protein E-GENE I-GENE
leptin S-GENE E-GENE
. O O
In O O
pituitary O O
GH3 O O
cells O O
, O O
vitamin O O
D O O
increases O O
the O O
levels O O
of O O
PRL B-GENE B-GENE
transcripts E-GENE E-GENE
and O O
stimulates O O
the O O
PRL B-GENE B-GENE
promoter E-GENE E-GENE
. O O
However O O
, O O
electron O O
microscopy O O
revealed O O
that O O
while O O
sec4 B-GENE O
mutant E-GENE O
cells O O
accumulate O O
secretory O O
vesicles O O
, O O
ypt31 B-GENE S-GENE
/ I-GENE O
32 I-GENE O
mutant E-GENE O
cells O O
accumulate O O
aberrant O O
Golgi O O
structures O O
. O O
METHODS O O
: O O
We O O
retrospectively O O
analyzed O O
the O O
data O O
of O O
20 O O
patients O O
who O O
underwent O O
both O O
gated O O
fluorine O O
18 O O
deoxyglucose O O
( O O
FDG O O
) O O
- O O
PET O O
and O O
equilibrium O O
radionuclide O O
angiography O O
( O O
ERNA O O
) O O
. O O
However O O
, O O
it O O
is O O
now O O
suggested O O
that O O
the O O
use O O
of O O
more O O
slowly O O
digested O O
starchy O O
foods O O
may O O
have O O
positive O O
health O O
benefits O O
. O O
Northern O O
blot O O
analysis O O
demonstrated O O
that O O
the O O
genes O O
are O O
transcribed O O
separately O O
. O O
Complete O O
activation O O
of O O
signal B-GENE O
transducer I-GENE O
and I-GENE O
activator I-GENE O
of I-GENE O
transcription I-GENE O
1 E-GENE O
( O O
STAT1 S-GENE S-GENE
) O O
requires O O
phosphorylation O O
at O O
both O O
Y701 O S-GENE
and O O
a O O
conserved O O
PMS O O
( O O
727 O O
) O O
P O O
sequence O O
. O O
Over O O
half O O
of O O
the O O
children O O
initially O O
unresponsive O O
to O O
H O O
. O O
influenzae O O
type O O
b O O
meningitis O O
subsequently O O
developed O O
specific O O
antibodies O O
. O O
It O O
is O O
important O O
to O O
understand O O
the O O
etiology O O
of O O
HITT O O
because O O
of O O
its O O
devastating O O
clinical O O
consequences O O
. O O
Five O O
sequence O O
variants O O
were O O
identified O O
. O O
The O O
Ras B-GENE B-GENE
GTPase I-GENE E-GENE
- I-GENE O
activating I-GENE O
- I-GENE O
protein I-GENE O
- I-GENE O
related I-GENE O
human I-GENE O
protein E-GENE O
IQGAP2 S-GENE S-GENE
harbors O O
a O O
potential O O
actin B-GENE O
binding I-GENE O
domain E-GENE O
and O O
interacts O O
with O O
calmodulin S-GENE O
and O O
Rho B-GENE B-GENE
family I-GENE I-GENE
GTPases E-GENE E-GENE
. O O
We O O
anticipated O O
SNS O S-GENE
function O O
after O O
CVA O O
to O O
be O O
asymmetric O O
and O O
selected O O
null O O
hypotheses O O
of O O
bilaterally O O
symmetric O O
SSR O O
latencies O O
and O O
amplitudes O O
irrespective O O
of O O
side O O
of O O
stimulation O O
and O O
/ O O
or O O
recording O O
. O O
Partial O O
hepatectomy O O
in O O
metastatic O O
Wilms O O
' O O
tumor O O
. O O
The O O
adoption O O
of O O
a O O
twisted O O
structure O O
of O O
importin B-GENE B-GENE
- I-GENE I-GENE
beta E-GENE E-GENE
is O O
essential O O
for O O
the O O
protein O O
- O O
protein O O
interaction O O
required O O
for O O
nuclear O O
transport O O
. O O
The O O
presence O O
of O O
a O O
short O O
( O O
70 O O
bp O O
) O O
intron O O
near O O
the O O
N O O
- O O
terminus O O
of O O
the O O
atX B-GENE O
gene E-GENE O
was O O
predicted O O
that O O
contains O O
the O O
canonical O O
GT O O
and O O
AG O O
dinucleotides O O
at O O
its O O
5 O O
' O O
- O O
and O O
3 O O
' O O
- O O
splicing O O
junctions O O
. O O
Moreover O O
, O O
a O O
hybrid O O
protein O O
composed O O
of O O
a O O
PvALF B-GENE S-GENE
activation I-GENE O
domain E-GENE O
and O O
the O O
DNA O O
binding O O
and O O
dimerization O O
domain O O
of O O
ROM2 S-GENE B-GENE
activated O I-GENE
gene O E-GENE
expression O O
, O O
indicating O O
that O O
ROM2 S-GENE S-GENE
recognizes O O
the O O
DLEC2 B-GENE B-GENE
enhancer E-GENE E-GENE
in O O
vivo O O
; O O
consequently O O
, O O
ROM2 S-GENE S-GENE
functions O O
as O O
a O O
DNA O O
binding O O
site O O
- O O
dependent O O
repressor O O
. O O
Tc O O
- O O
99m O O
HMPAO O O
brain O O
SPECT O O
compared O O
to O O
CT O O
and O O
EEG O O
after O O
seizures O O
in O O
childhood O O
. O O
We O O
found O O
that O O
the O O
central O O
nonconserved O O
region O O
of O O
the O O
large O O
subunit O O
is O O
not O O
essential O O
for O O
function O O
and O O
likely O O
acts O O
as O O
a O O
spacer O O
between O O
the O O
conserved O O
N O O
- O O
and O O
C O O
- O O
terminal O O
regions O O
. O O
On O O
the O O
other O O
hand O O
, O O
NE O O
transport O O
and O O
antagonist O O
( O O
[ O O
125I O O
] O O
RTI O O
- O O
55 O O
) O O
binding O O
assays O O
on O O
whole O O
LLC O O
- O O
NET O O
cells O O
treated O O
with O O
tunicamycin O O
reveal O O
a O O
pronounced O O
reduction O O
in O O
NE O O
transport O O
activity O O
and O O
hNET S-GENE O
membrane O O
density O O
paralleled O O
by O O
an O O
inability O O
of O O
NET B-GENE O
proteins E-GENE O
to O O
replenish O O
the O O
higher O O
M O O
( O O
r O O
) O O
hNET S-GENE O
pool O O
. O O
We O O
show O O
that O O
the O O
upstream O O
region O O
of O O
the O O
beta B-GENE B-GENE
- I-GENE I-GENE
MyHC I-GENE I-GENE
gene E-GENE E-GENE
( O O
- O O
5518 O S-GENE
to O O
- O O
2490 O O
relative O O
to O O
the O O
transcriptional O O
start O O
site O O
) O O
directed O O
high O O
levels O O
of O O
transcriptional O O
activity O O
only O O
when O O
stably O O
integrated O O
, O O
but O O
not O O
when O O
expressed O O
extrachromosomally O O
in O O
transient O O
assays O O
. O O
DNase B-GENE B-GENE
I E-GENE E-GENE
protection O O
analysis O O
as O O
well O O
as O O
oligonucleotide O O
competition O O
experiments O O
indicate O O
that O O
this O O
binding O O
is O O
sequence O O
specific O O
. O O
Plasmid O O
pSP64E6E7 O O
which O O
contains O O
the O O
reading O O
frames O O
of O O
both O O
E6 S-GENE O
and O O
E7 S-GENE O
was O O
constructed O O
in O O
order O O
to O O
study O O
the O O
expression O O
of O O
both O O
proteins O O
in O O
a O O
coupled O O
transcription O O
/ O O
rabbit O O
reticulocyte O O
translation O O
system O O
. O O
In O O
transient O O
transfections O O
using O O
luciferase B-GENE O
reporter I-GENE O
genes E-GENE O
driven O O
by O O
1 O O
kb O O
of O O
the O O
5 O O
' O O
flanking O O
DNA O O
of O O
the O O
three O O
CALM B-GENE O
genes E-GENE O
, O O
the O O
promoter O O
activity O O
correlated O O
with O O
the O O
endogenous B-GENE O
CALM E-GENE O
transcriptional O O
activity O O
, O O
but O O
only O O
when O O
the O O
5 O O
' O O
untranslated O O
regions O O
were O O
included O O
in O O
the O O
constructs O O
. O O
These O O
findings O O
suggest O O
that O O
PGE1 O S-GENE
is O O
effective O O
in O O
increasing O O
PVF O O
in O O
the O O
liver O O
transplanted O O
condition O O
; O O
however O O
, O O
the O O
hepatic O O
circulatory O O
improvement O O
attributed O O
to O O
this O O
agent O O
would O O
be O O
limited O O
to O O
the O O
first O O
few O O
days O O
following O O
transplantation O O
. O O
The O O
derepressed O O
expression O O
of O O
fixN S-GENE S-GENE
was O O
not O O
observed O O
in O O
a O O
purH B-GENE B-GENE
mutant E-GENE E-GENE
. O O
Nearly O O
1 O O
. O O
5 O O
million O O
American O O
men O O
age O O
65 O O
and O O
older O O
have O O
osteoporosis O O
, O O
and O O
another O O
3 O O
. O O
5 O O
million O O
are O O
at O O
risk O O
. O O
Both O O
viruses O O
express O O
the O O
mil S-GENE O
/ O O
raf S-GENE O
oncogene O O
product O O
as O O
a O O
gag B-GENE O
- I-GENE O
fusion E-GENE O
polyprotein O O
, O O
while O O
the O O
myc S-GENE B-GENE
oncogene O E-GENE
of O O
MH2 O S-GENE
is O O
expressed O O
via O O
a O O
subgenomic O B-GENE
mRNA O E-GENE
. O O
CONCLUSION O O
: O O
DaunoXome O O
has O O
an O O
improved O O
pharmacokinetic O O
profile O O
compared O O
with O O
free O O
daunorubicin O O
, O O
and O O
is O O
well O O
tolerated O O
. O O
This O O
regimen O O
may O O
be O O
considered O O
front O O
- O O
line O O
therapy O O
when O O
autologous O O
stem O O
cell O O
transplantation O O
is O O
not O O
feasible O O
and O O
when O O
a O O
rapid O O
response O O
is O O
particularly O O
important O O
. O O
Recombinant O O
protein O O
encoded O O
by O O
ESX S-GENE S-GENE
( O O
for O O
epithelial B-GENE O
- I-GENE O
restricted I-GENE O
with I-GENE O
serine I-GENE O
box E-GENE O
) O O
exhibits O O
Ets B-GENE O
- I-GENE O
like E-GENE O
DNA O O
binding O O
specificity O O
in O O
electrophoretic O O
mobility O O
shift O O
assays O O
and O O
, O O
in O O
transient O O
transfection O O
assays O O
, O O
transactivates O O
Ets B-GENE O
- I-GENE O
responsive I-GENE O
promoter I-GENE O
elements E-GENE O
including O O
that O O
found O O
in O O
the O O
HER2 S-GENE S-GENE
/ O O
neu S-GENE O
oncogene O O
. O O
In O O
area O O
CA1 O O
of O O
the O O
hippocampus O O
, O O
numbers O O
of O O
normal O O
neurons O O
were O O
increased O O
11 O O
- O O
to O O
14 O O
- O O
fold O O
by O O
MK O O
- O O
801 O O
treatment O O
( O O
p O O
< O O
0 O O
. O O
01 O O
) O O
. O O
The O O
temporal O O
changes O O
in O O
the O O
plasma O O
concentration O O
of O O
immunoreactive B-GENE B-GENE
atrial I-GENE I-GENE
natriuretic I-GENE I-GENE
factor E-GENE E-GENE
( O O
iANF S-GENE O
) O O
were O O
studied O O
in O O
six O O
conscious O O
dogs O O
with O O
an O O
arteriovenous O O
( O O
AV O O
) O O
fistula O O
, O O
a O O
model O O
of O O
chronic O O
high O O
- O O
output O O
heart O O
failure O O
. O O
The O O
revaluation O O
at O O
the O O
end O O
of O O
the O O
study O O
showed O O
a O O
good O O
compliance O O
for O O
the O O
proposed O O
diet O O
scheme O O
by O O
children O O
, O O
but O O
a O O
poor O O
compliance O O
by O O
their O O
families O O
. O O
The O O
delta O O
G O O
values O O
of O O
these O O
regions O O
were O O
higher O O
, O O
i O O
. O O
e O O
. O O
potential O O
secondary O O
structural O O
elements O O
were O O
fewer O O
, O O
than O O
in O O
TIR O O
of O O
genes O O
from O O
E O O
. O O
coli O O
. O O
Two O O
closely O O
related O O
groups O O
of O O
transcripts O O
, O O
Sagrp1 S-GENE S-GENE
and O O
Sagrp2 S-GENE S-GENE
, O O
controlled O O
by O O
a O O
circadian O O
rhythm O O
have O O
been O O
isolated O O
. O O
Of O O
921 O O
specimens O O
, O O
95 O O
yielded O O
non O O
- O O
albicans O O
species O O
, O O
mainly O O
from O O
patients O O
with O O
low O O
CD4 S-GENE O
lymphocyte O O
counts O O
and O O
extensive O O
previous O O
azole O O
exposure O O
. O O
These O O
findings O O
suggest O O
that O O
eIF5 S-GENE B-GENE
- O I-GENE
eIF2beta S-GENE E-GENE
interaction O O
plays O O
an O O
essential O O
role O O
in O O
eIF5 S-GENE S-GENE
function O O
in O O
eukaryotic O O
cells O O
. O O
Three O O
simple O O
methods O O
of O O
detecting O O
malnutrition O O
on O O
medical O O
wards O O
. O O
Compared O O
with O O
controls O O
, O O
patients O O
in O O
the O O
unmedicated O O
state O O
had O O
low O O
smooth O O
pursuit O O
gain O O
, O O
had O O
a O O
higher O O
rate O O
of O O
corrective O O
catch O O
- O O
up O O
saccades O O
, O O
and O O
tended O O
to O O
spend O O
less O O
time O O
engaged O O
in O O
the O O
tracking O O
task O O
. O O
Cytokine O B-GENE
- O I-GENE
mediated O I-GENE
I B-GENE I-GENE
kappa I-GENE I-GENE
B I-GENE I-GENE
alpha E-GENE E-GENE
reappearance O O
was O O
completely O O
blocked O O
by O O
the O O
protein O O
synthesis O O
inhibitor O O
cycloheximide O O
. O O
Development O O
of O O
P O O
carinii O O
pneumonia O O
was O O
associated O O
with O O
the O O
stage O O
of O O
Kaposi O O
' O O
s O O
sarcoma O O
, O O
B O O
subtype O O
disease O O
, O O
and O O
the O O
presence O O
of O O
0 O O
. O O
20 O O
X O O
10 O O
( O O
9 O O
) O O
/ O O
L O O
( O O
200 O O
/ O O
mm3 O O
) O O
or O O
fewer O O
CD4 S-GENE O
cells O O
at O O
study O O
entry O O
. O O
The O O
effects O O
of O O
tilmicosin O O
administration O O
in O O
the O O
feed O O
at O O
400 O O
mg O O
/ O O
kg O O
and O O
an O O
injection O O
therapy O O
of O O
clinically O O
diseased O O
pigs O O
with O O
long O O
- O O
acting O O
oxytetracycline O O
( O O
Terramycine O O
LA O O
) O O
at O O
20 O O
mg O O
/ O O
kg O O
bodyweight O O
were O O
compared O O
. O O
Those O O
participating O O
in O O
this O O
investigation O O
( O O
65 O O
centers O O
= O O
79 O O
% O O
) O O
received O O
a O O
series O O
of O O
computer O O
disks O O
containing O O
50 O O
99mTc O O
- O O
DMSA O O
studies O O
. O O
Pathogenesis O O
of O O
fever O O
. O O
Two O O
full O O
- O O
length O O
clones O O
( O O
pBCH1 O O
and O O
pBCH2 O O
) O O
were O O
isolated O O
. O O
Childbirth O O
and O O
authoritative O O
knowledge O O
. O O
The O O
ends O O
of O O
the O O
barrel O O
are O O
capped O O
by O O
short O O
helices O O
. O O
Non O O
- O O
finger O O
- O O
coding O O
modules O O
conserved O O
among O O
members O O
of O O
subfamilies O O
of O O
zinc B-GENE O
finger I-GENE O
genes E-GENE O
have O O
been O O
described O O
in O O
the O O
murine O O
genome O O
( O O
finger O O
- O O
associated O O
boxes O O
, O O
or O O
FAX O O
domain O O
) O O
and O O
the O O
human O O
genome O O
( O O
Kruppel B-GENE O
- I-GENE O
associated I-GENE O
boxes E-GENE O
, O O
or O O
KRAB B-GENE B-GENE
domain E-GENE E-GENE
) O O
. O O
This O O
combination O O
is O O
considered O O
pathognomonic O O
for O O
factitious O O
hyperinsulinism O O
. O O
Comparison O O
of O O
the O O
5 O O
' O O
flanking O O
regions O O
of O O
the O O
[...]
. O O
HNF4alpha7 B-GENE B-GENE
mRNA E-GENE E-GENE
is O O
also O O
found O O
in O O
totipotent O O
embryonic O O
stem O O
cells O O
. O O
Penicillamine O O
- O O
induced O O
myasthenia O O
gravis O O
associated O O
with O O
antibodies O O
to O O
acetylcholine B-GENE B-GENE
receptor E-GENE E-GENE
. O O
Magnetic O O
force O O
and O O
torque O O
at O O
1 O O
. O O
5 O O
T O O
did O O
not O O
dislodge O O
the O O
GF O O
or O O
result O O
in O O
perforation O O
of O O
canine O O
IVC O O
by O O
the O O
GF O O
. O O
A O O
. O O
LCCH1 S-GENE S-GENE
was O O
identical O O
to O O
the O O
Rdl B-GENE B-GENE
gene E-GENE E-GENE
, O O
a O O
known O O
GABA B-GENE B-GENE
receptor I-GENE I-GENE
subunit I-GENE I-GENE
gene E-GENE E-GENE
from O O
D O O
. O O
melanogaster O O
, O O
whereas O O
LCCH2 S-GENE S-GENE
and O O
LCCH3 S-GENE S-GENE
were O O
novel O O
D O O
. O O
melanogaster O O
sequences O O
that O O
exhibited O O
structural O O
similarity O O
to O O
other O O
members O O
of O O
the O O
ligand B-GENE O
- I-GENE O
gated I-GENE O
chloride I-GENE O
channel I-GENE O
gene I-GENE O
family E-GENE O
. O O
A O O
significant O O
increase O O
of O O
gastric O O
mucosal O O
permeability O O
was O O
observed O O
in O O
six O O
normal O O
human O O
subjects O O
after O O
instillation O O
of O O
ethanol O O
( O O
20 O O
percent O O
v O O
/ O O
v O O
) O O
. O O
Using O O
a O O
simulated O O
cough O O
machine O O
, O O
we O O
analyzed O O
the O O
effect O O
of O O
adding O O
tensio O O
- O O
active O O
liquids O O
as O O
sol O O
phase O O
simulant O O
on O O
the O O
clearance O O
of O O
gel O O
mucus O O
simulant O O
by O O
cough O O
. O O
First O O
, O O
the O O
amino O O
- O O
terminal O O
regulatory O O
arm O O
of O O
the O O
GDI S-GENE S-GENE
binds O O
to O O
the O O
switch O O
I O O
and O O
II O O
domains O O
of O O
Cdc42 S-GENE S-GENE
leading O O
to O O
the O O
inhibition O O
of O O
both O O
GDP O O
dissociation O O
and O O
GTP O S-GENE
hydrolysis O O
. O O
By O O
a O O
combination O O
of O O
alternative O O
promoter O O
usage O O
and O O
exon O O
splicing O O
, O O
each O O
ROR B-GENE B-GENE
gene E-GENE E-GENE
generates O O
several O O
isoforms O O
that O O
differ O O
only O O
in O O
their O O
amino O O
terminus O O
. O O
Electrophoretic O O
mobility O O
- O O
shift O O
assays O O
showed O O
a O O
rapid O O
induction O O
of O O
nuclear O O
proteins O O
that O O
bound O O
to O O
the O O
consensus B-GENE O
kappa I-GENE B-GENE
B I-GENE I-GENE
motif E-GENE E-GENE
. O O
Analysis O O
of O O
larger O O
cDNA O O
clones O O
demonstrates O O
that O O
there O O
are O O
at O O
least O O
two O O
isoforms O O
of O O
RIP14 S-GENE S-GENE
that O O
differ O O
in O O
the O O
N O O
- O O
terminal O O
( O O
A O O
and O O
B O O
) O O
and O O
hinge O O
( O O
D O O
) O O
domains O O
. O O
Multiple O O
copies O O
of O O
this O O
binding O O
site O O
are O O
found O O
in O O
the O O
viral O O
genomes O O
. O O
During O O
subsequent O O
CS O O
- O O
alone O O
trials O O
, O O
the O O
responses O O
of O O
( O O
+ O O
) O O
MK O O
- O O
801 O O
- O O
injected O O
mice O O
were O O
extinguished O O
as O O
easily O O
as O O
those O O
of O O
saline O O
- O O
injected O O
mice O O
. O O
In O O
contrast O O
, O O
the O O
tail O O
deviated O O
ipsilaterally O O
in O O
cats O O
with O O
a O O
hemisection O O
, O O
and O O
the O O
tail O O
was O O
ventroflexed O O
in O O
cats O O
with O O
a O O
transection O O
. O O
The O O
major O O
open O O
reading O O
frame O O
of O O
the O O
cDNA O O
predicts O O
a O O
protein O O
of O O
59 O O
kD O O
, O O
with O O
a O O
leucine O O
zipper O O
situated O O
adjacent O O
to O O
an O O
myc B-GENE O
- I-GENE O
related I-GENE O
motif E-GENE O
that O O
has O O
been O O
proposed O O
to O O
assume O O
a O O
helix O O
- O O
loop O O
- O O
helix O O
structure O O
. O O
This O O
residue O O
, O O
although O O
located O O
55 O O
rather O O
than O O
35 O O
residues O O
NH2 O O
- O O
terminal O O
of O O
the O O
essential O O
glutamate O O
, O O
is O O
undoubtedly O O
the O O
analog O O
of O O
the O O
second O O
aspartate O O
of O O
the O O
Asp O O
- O O
Asp O O
- O O
35 O O
- O O
Glu O O
motif O O
found O O
in O O
other O O
family O O
members O O
. O O
In O O
addition O O
to O O
loss O O
of O O
digit O O
identity O O
and O O
varying O O
degrees O O
of O O
polydactyly O O
, O O
proximal O O
skeletal O O
elements O O
are O O
severely O O
shortened O O
in O O
Xt S-GENE O
; O O
ld S-GENE O
double O O
homozygous O O
limbs O O
. O O
The O O
PEP4 B-GENE B-GENE
gene E-GENE E-GENE
was O O
isolated O O
from O O
a O O
genomic O O
DNA O O
library O O
by O O
complementation O O
of O O
the O O
pep4 B-GENE B-GENE
- I-GENE I-GENE
3 E-GENE I-GENE
mutation O E-GENE
. O O
A O O
gene O O
with O O
a O O
high O O
degree O O
of O O
sequence O O
identity O O
with O O
mammalian B-GENE B-GENE
ADP I-GENE I-GENE
- I-GENE I-GENE
ribosylation I-GENE I-GENE
factors E-GENE E-GENE
( O O
ARFs S-GENE S-GENE
) O O
, O O
believed O O
to O O
be O O
important O O
in O O
vesicular O O
transport O O
, O O
was O O
identified O O
. O O
Off O O
- O O
shell O O
effect O O
in O O
Rydberg O O
- O O
atom O O
- O O
alkali O O
- O O
metal O O
- O O
atom O O
scattering O O
. O O
Short O O
- O O
term O O
growth O O
: O O
rhythms O O
, O O
chaos O O
, O O
or O O
noise O O
? O O
Association O O
between O O
diaphragm O O
use O O
and O O
asymptomatic O O
bacteriuria O O
. O O
The O O
effect O O
of O O
iron O O
on O O
the O O
toxigenicity O O
of O O
Vibrio O O
cholerae O O
. O O
The O O
Tat B-GENE B-GENE
protein E-GENE E-GENE
coded O O
by O O
human O O
immunodeficiency O O
virus O O
( O O
HIV O O
) O O
is O O
a O O
strong O O
activator O O
of O O
viral O O
gene O O
expression O O
from O O
the O O
long O O
terminal O O
repeat O O
( O O
LTR O O
) O O
. O O
Is O O
it O O
time O O
for O O
a O O
wine O O
trial O O
? O O
The O O
average O O
coefficient O O
of O O
variation O O
between O O
assays O O
for O O
gas O O
chromatography O O
mass O O
spectrometry O O
was O O
5 O O
. O O
8 O O
% O O
and O O
for O O
radioimmunoassay O O
was O O
12 O O
. O O
3 O O
% O O
, O O
while O O
the O O
average O O
coefficient O O
of O O
variation O O
within O O
assays O O
for O O
gas O O
chromatography O O
mass O O
spectrometry O O
was O O
4 O O
. O O
9 O O
% O O
and O O
for O O
radioimmunoassay O O
6 O O
. O O
9 O O
% O O
. O O
Macrophages O O
: O O
modulators O O
of O O
immunity O O
. O O
The O O
NH2 O O
- O O
terminal O O
fragments O O
were O O
tested O O
for O O
susceptibility O O
to O O
modification O O
with O O
Nalpha O O
- O O
( O O
3 O O
- O O
maleimidylpropionyl O O
) O O
biocytin O O
, O O
which O O
attaches O O
a O O
biotin O O
group O O
to O O
cysteine O O
sulfhydryls O O
. O O
Production O O
of O O
VT O O
was O O
also O O
examined O O
retrospectively O O
in O O
32 O O
E O O
. O O
coli O O
strains O O
of O O
serotype O O
O26 O O
: O O
H11 O O
isolated O O
from O O
children O O
with O O
diarrhoea O O
; O O
eight O O
( O O
25 O O
% O O
) O O
of O O
them O O
produced O O
moderate O O
to O O
high O O
levels O O
of O O
verotoxin B-GENE O
1 E-GENE O
despite O O
several O O
years O O
storage O O
in O O
vitro O O
. O O
Serum O O
pituitary O O
and O O
steroid O O
hormone O O
levels O O
in O O
the O O
adult O O
male O O
: O O
one O O
value O O
is O O
as O O
good O O
as O O
the O O
mean O O
of O O
three O O
. O O
The O O
sections O O
were O O
stained O O
with O O
anti O O
- O O
polymorphonuclear O O
leukocyte O O
antibody O O
, O O
the O O
endothelial O B-GENE
marker O I-GENE
factor B-GENE I-GENE
VIII I-GENE I-GENE
- I-GENE I-GENE
related I-GENE I-GENE
antigen E-GENE E-GENE
, O O
and O O
with O O
hematoxylin O O
and O O
eosin O O
. O O
Mapping O O
of O O
the O O
region O O
in O O
KAP B-GENE B-GENE
- I-GENE I-GENE
1 E-GENE E-GENE
required O O
for O O
HP1 S-GENE S-GENE
interaction O O
showed O O
that O O
amino O O
acid O O
substitutions O O
which O O
abolish O O
HP1 S-GENE S-GENE
binding O O
in O O
vitro O O
reduce O O
KAP B-GENE B-GENE
- I-GENE I-GENE
1 E-GENE E-GENE
mediated O O
repression O O
in O O
vivo O O
. O O
The O O
flanking O O
open O O
reading O O
frames O O
in O O
pARGC2 O S-GENE
showed O O
no O O
homologies O O
to O O
arginine O O
biosynthetic O O
genes O O
. O O
Promoter O O
activity O O
of O O
the O O
proliferating B-GENE B-GENE
- I-GENE I-GENE
cell I-GENE I-GENE
nuclear I-GENE I-GENE
antigen I-GENE I-GENE
gene E-GENE E-GENE
is O O
associated O O
with O O
inducible O O
CRE B-GENE B-GENE
- I-GENE I-GENE
binding I-GENE I-GENE
proteins E-GENE E-GENE
in O O
interleukin B-GENE O
2 E-GENE O
- O O
stimulated O O
T O O
lymphocytes O O
. O O
METHODS O O
: O O
Levels O O
of O O
sIL B-GENE O
- I-GENE O
2R E-GENE O
were O O
measured O O
simultaneously O O
in O O
plasma O O
and O O
pleural O O
fluid O O
in O O
111 O O
patients O O
with O O
pleural O O
effusions O O
of O O
unknown O O
causes O O
. O O
The O O
GIS O O
software O O
program O O
, O O
ArcView O O
, O O
was O O
used O O
for O O
spatial O O
analysis O O
and O O
distance O O
calculations O O
. O O
chi2 O O
Tests O O
were O O
used O O
to O O
compare O O
the O O
distribution O O
of O O
the O O
characteristics O O
between O O
intersection O O
and O O
midblock O O
collisions O O
. O O
A O O
phase O O
II O O
study O O
was O O
initiated O O
to O O
evaluate O O
the O O
effect O O
of O O
a O O
combination O O
of O O
the O O
pure O O
L O O
- O O
isomer O O
of O O
LV O O
and O O
5 O O
- O O
FU O O
along O O
with O O
epirubicin O O
in O O
patients O O
with O O
advanced O O
pancreatic O O
cancer O O
. O O
RESULTS O O
: O O
After O O
3 O O
weeks O O
of O O
therapy O O
, O O
the O O
patient O O
had O O
an O O
increase O O
in O O
platelet O O
count O O
from O O
a O O
baseline O O
of O O
5 O O
, O O
000 O O
to O O
8 O O
, O O
000 O O
/ O O
microliter O O
to O O
a O O
maximal O O
level O O
of O O
33 O O
, O O
000 O O
/ O O
microliter O O
. O O
The O O
specificity O O
of O O
the O O
transcriptional O O
activation O O
by O O
ISGF3 S-GENE S-GENE
is O O
mediated O O
by O O
specific O O
elements O O
termed O O
IFN B-GENE S-GENE
- I-GENE O
stimulatory I-GENE O
response I-GENE O
element E-GENE O
( O O
ISRE S-GENE S-GENE
) O O
located O O
in O O
the O O
promoter O O
region O O
of O O
IFN S-GENE B-GENE
- O I-GENE
inducible O I-GENE
genes O E-GENE
. O O
It O O
appears O O
that O O
the O O
K O O
- O O
ABC O O
is O O
a O O
relatively O O
nonbiased O O
test O O
suitable O O
for O O
the O O
evaluation O O
of O O
both O O
gifted O O
and O O
nongifted O O
children O O
regardless O O
of O O
race O O
or O O
gender O O
. O O
In O O
another O O
patient O O
, O O
IRPF O O
recurred O O
in O O
the O O
ureter O O
of O O
a O O
living O O
related O O
renal O O
graft O O
6 O O
months O O
after O O
transplantation O O
. O O
These O O
mutants O O
, O O
assayed O O
by O O
injection O O
into O O
Xenopus O O
oocyte O O
nuclei O O
, O O
delimit O O
the O O
promoter O O
to O O
36 O O
bp O O
of O O
DNA O O
upstream O O
of O O
the O O
cap O O
site O O
and O O
73 O O
bp O O
of O O
the O O
untranslated O O
mRNA O O
leader O O
. O O
Upstream O O
tissue B-GENE O
inhibitor I-GENE O
of I-GENE O
metalloproteinases I-GENE B-GENE
- I-GENE I-GENE
1 I-GENE E-GENE
( I-GENE O
TIMP I-GENE O
- I-GENE O
1 I-GENE O
) I-GENE O
element I-GENE O
- I-GENE O
1 E-GENE O
, O O
a O O
novel O O
and O O
essential O O
regulatory O O
DNA O O
motif O O
in O O
the O O
human B-GENE B-GENE
TIMP I-GENE I-GENE
- I-GENE I-GENE
1 I-GENE I-GENE
gene I-GENE I-GENE
promoter E-GENE E-GENE
, O O
directly O O
interacts O O
with O O
a O O
30 O O
- O O
kDa O O
nuclear O O
protein O O
. O O
The O O
results O O
of O O
these O O
experiments O O
indicated O O
that O O
charcoal O O
, O O
imbiber O O
beads O O
, O O
and O O
the O O
anion O O
exchanges O O
resins O O
, O O
Dowex O O
XFS O O
- O O
4022 O O
and O O
Dowex O O
SBR O O
- O O
C1 O O
, O O
would O O
not O O
be O O
useful O O
agents O O
for O O
increasing O O
the O O
amount O O
of O O
dieldrin O O
eliminated O O
via O O
feces O O
( O O
droppings O O
) O O
of O O
chickens O O
. O O
The O O
receptor O O
for O O
CSF B-GENE B-GENE
- I-GENE I-GENE
1 E-GENE E-GENE
, O O
c B-GENE B-GENE
- I-GENE I-GENE
Fms E-GENE E-GENE
, O O
is O O
expressed O O
in O O
osteoclasts O O
, O O
possesses O O
intrinsic O O
tyrosine B-GENE B-GENE
- I-GENE I-GENE
kinase E-GENE E-GENE
activity O O
, O O
and O O
signals O O
via O O
rapid O O
phosphorylation O O
of O O
selected O O
proteins O O
. O O
Adaptive O O
effects O O
of O O
repeated O O
immersion O O
exposure O O
on O O
the O O
human O O
body O O
To O O
this O O
end O O
we O O
generated O O
a O O
detailed O O
physical O O
map O O
of O O
the O O
genomic O O
region O O
spanning O O
between O O
sequence O O
- O O
tagged O O
site O O
markers O O
D16S518 S-GENE S-GENE
and O O
D16S516 S-GENE S-GENE
. O O
Spinophilin S-GENE O
, O O
a O O
novel O O
protein B-GENE B-GENE
phosphatase I-GENE I-GENE
1 I-GENE E-GENE
binding I-GENE O
protein E-GENE O
localized O O
to O O
dendritic O O
spines O O
. O O
We O O
have O O
found O O
that O O
pro B-GENE B-GENE
- I-GENE I-GENE
IGF I-GENE I-GENE
- I-GENE I-GENE
2 E-GENE E-GENE
can O O
initially O O
form O O
two O O
disulfide O O
isomers O O
that O O
undergo O O
rearrangement O O
to O O
a O O
single O O
conformation O O
in O O
vivo O O
. O O
While O O
working O O
on O O
the O O
toxicity O O
of O O
war O O
gases O O
. O O
he O O
formulated O O
' O O
Haber O O
' O O
s O O
rule O O
' O O
, O O
also O O
known O O
as O O
C O O
x O O
T O O
= O O
constant O O
in O O
order O O
to O O
characterize O O
the O O
toxicity O O
of O O
an O O
inhalant O O
. O O
The O O
existence O O
of O O
a O O
TFIIIB S-GENE S-GENE
assembly O O
pathway O O
leading O O
to O O
the O O
faithful O O
transcription O O
of O O
natural O O
eukaryotic O O
tRNA O B-GENE
genes O E-GENE
in O O
the O O
absence O O
of O O
TFIIIC S-GENE S-GENE
provides O O
novel O O
insights O O
into O O
the O O
functional O O
flexibility O O
of O O
the O O
eukaryotic O B-GENE
tRNA O I-GENE
gene O E-GENE
transcription O O
machinery O O
and O O
on O O
its O O
evolution O O
from O O
an O O
ancestral O O
RNA B-GENE O
polymerase I-GENE O
III E-GENE O
system O O
relying O O
on O O
upstream O O
, O O
TATA O O
- O O
centered O O
control O O
elements O O
. O O
Ectopic O O
Xbra S-GENE O
can O O
induce O O
Xegr B-GENE O
- I-GENE O
1 E-GENE O
transcription O O
by O O
an O O
indirect O O
mechanism O O
that O O
appears O O
to O O
operate O O
via O O
primary O O
activation O O
of O O
fibroblast B-GENE B-GENE
growth I-GENE I-GENE
factor E-GENE E-GENE
secretion O O
. O O
A O O
rapid O O
mixing O O
device O O
for O O
quasielastic O O
light O O
scattering O O
studies O O
of O O
reacting O O
systems O O
. O O
The O O
major O O
transcription O O
start O O
site O O
, O O
designated O O
as O O
+ O O
1 O O
, O O
was O O
determined O O
by O O
RACE O O
( O O
rapid O O
amplification O O
of O O
cDNA O O
ends O O
) O O
analysis O O
of O O
human O O
liver O O
cDNA O O
and O O
was O O
found O O
to O O
be O O
located O O
50 O O
bp O O
upstream O O
from O O
the O O
translation O O
start O O
site O O
. O O
These O O
aa O O
residues O O
correspond O O
to O O
codons O O
59 O O
and O O
108 O O
in O O
the O O
P B-GENE O
. I-GENE O
falciparum I-GENE O
DHFR I-GENE O
active I-GENE O
site E-GENE O
in O O
which O O
similar O O
aa O O
substitutions O O
( O O
Cys O O
Arg O O
- O O
59 O O
and O O
Ser O O
Asn O O
- O O
108 O O
) O O
are O O
associated O O
with O O
pyrimethamine O O
resistance O O
. O O
Of O O
all O O
YASR O O
syndromes O O
, O O
the O O
highest O O
stability O O
was O O
for O O
the O O
Anxious O O
/ O O
Depressed O O
scale O O
. O O
Here O O
we O O
investigate O O
the O O
mechanism O O
of O O
TPA O S-GENE
induction O O
of O O
FGF B-GENE B-GENE
- I-GENE I-GENE
BP E-GENE I-GENE
gene O E-GENE
expression O O
in O O
the O O
human O O
ME O O
- O O
180 O O
SCC O O
cell O O
line O O
. O O
Between O O
the O O
RNA O O
initiation O O
site O O
and O O
the O O
coding O O
region O O
is O O
a O O
GC O O
- O O
rich O O
hairpin O O
structure O O
followed O O
by O O
8 O O
T O O
residues O O
that O O
looks O O
like O O
a O O
rho B-GENE O
- I-GENE O
independent I-GENE O
transcription I-GENE O
terminator E-GENE O
. O O
Conversely O O
the O O
rate O O
of O O
bioavailability O O
was O O
significantly O O
different O O
, O O
because O O
from O O
the O O
Reference O O
patch O O
the O O
release O O
rate O O
is O O
fast O O
in O O
the O O
first O O
24 O O
h O O
, O O
leading O O
to O O
an O O
E2 O O
peak O O
at O O
8 O O
h O O
and O O
to O O
a O O
Cmax O O
in O O
average O O
at O O
23 O O
h O O
. O O
3 O O
) O O
The O O
progress O O
of O O
fibrinolysis O O
was O O
observed O O
by O O
serial O O
collection O O
of O O
middle O O
ear O O
fluid O O
in O O
the O O
same O O
side O O
ear O O
of O O
5 O O
cases O O
out O O
of O O
17 O O
cases O O
having O O
much O O
activity O O
for O O
fibrin S-GENE O
degradation O O
, O O
and O O
lowering O O
of O O
fibrinolytic O O
activity O O
was O O
revealed O O
in O O
4 O O
out O O
of O O
these O O
5 O O
cases O O
as O O
the O O
result O O
. O O
Thus O O
G17 S-GENE O
targets O O
the O O
c B-GENE B-GENE
- I-GENE I-GENE
fos I-GENE I-GENE
promoter I-GENE I-GENE
CArG I-GENE I-GENE
sequence E-GENE E-GENE
via O O
Rho B-GENE O
A E-GENE O
- O O
dependent O O
pathways O O
, O O
and O O
Rho B-GENE O
A E-GENE O
appears O O
to O O
play O O
an O O
important O O
role O O
in O O
the O O
regulation O O
of O O
the O O
trophic O O
action O O
of O O
G17 S-GENE S-GENE
. O O
The O O
MIC90 O O
of O O
ABK O O
against O O
coagulase B-GENE O
type I-GENE O
IV E-GENE O
strains O O
was O O
rather O O
high O O
, O O
12 O O
. O O
5 O O
micrograms O O
/ O O
ml O O
. O O
In O O
each O O
patient O O
, O O
MBF O O
was O O
quantified O O
in O O
the O O
three O O
major O O
vascular O O
territories O O
: O O
the O O
left O O
anterior O O
descending O O
and O O
left O O
circumflex O O
coronary O O
artery O O
territories O O
and O O
the O O
right O O
coronary O O
artery O O
( O O
control O O
region O O
) O O
territory O O
. O O
These O O
results O O
demonstrate O O
that O O
m2 B-GENE B-GENE
receptors E-GENE E-GENE
couple O O
to O O
both O O
G B-GENE B-GENE
alpha I-GENE I-GENE
i2 E-GENE E-GENE
and O O
G B-GENE B-GENE
alpha I-GENE I-GENE
i3 E-GENE E-GENE
in O O
vivo O O
and O O
that O O
this O O
interaction O O
is O O
integral O O
to O O
both O O
positive O O
and O O
negative O O
regulatory O O
pathways O O
leading O O
to O O
activation O O
of O O
PLC S-GENE O
and O O
desensitization O O
of O O
receptor O O
signaling O O
. O O
Platelet O O
count O O
and O O
plasma O O
volume O O
were O O
significantly O O
higher O O
in O O
group O O
A O O
than O O
in O O
group O O
B O O
throughout O O
pregnancy O O
. O O
The O O
fru B-GENE B-GENE
gene E-GENE E-GENE
has O O
seven O O
exons O O
spanning O O
15 O O
- O O
kb O O
encoding O O
two O O
transcripts O O
with O O
ORFs O O
of O O
841 O O
and O O
695 O O
amino O O
acids O O
. O O
HC B-GENE B-GENE
- I-GENE I-GENE
toxin E-GENE E-GENE
exerts O O
a O O
potent O O
cytostatic O O
effect O O
on O O
plant O O
and O O
animal O O
cells O O
by O O
inhibiting O O
histone B-GENE O
deacetylase E-GENE O
. O O
The O O
human O B-GENE
RIL B-GENE I-GENE
gene E-GENE E-GENE
: O O
mapping O O
to O O
human O B-GENE
chromosome O I-GENE
5q31 O I-GENE
. O I-GENE
1 O E-GENE
, O O
genomic O O
organization O O
and O O
alternative O O
transcripts O O
. O O
The O O
delta O O
mean O O
VAF O S-GENE
and O O
delta O O
mean O O
SABP O S-GENE
indicated O O
varied O O
mean O O
values O O
of O O
VAF O S-GENE
and O O
SABP O S-GENE
, O O
respectively O O
. O O
Azoospermia O O
was O O
graded O O
in O O
the O O
following O O
way O O
: O O
adequate O O
spermatozoa O O
( O O
A1 O O
) O O
, O O
low O O
, O O
scanty O O
or O O
rare O O
spermatozoa O O
( O O
A2 O O
) O O
, O O
spermatid O O
arrest O O
( O O
B1 O O
) O O
, O O
spermatocyte O O
arrest O O
( O O
B2 O O
) O O
, O O
Sertoli O O
cell O O
- O O
only O O
pattern O O
( O O
C O O
) O O
and O O
sclerosis O O
( O O
D O O
) O O
. O O
