Physical O O
mapping O O
220 O O
kb O O
centromeric O O
of O O
the O O
human B-GENE O
MHC E-GENE O
and O O
DNA O O
sequence O O
analysis O O
of O O
the O O
43 O O
- O O
kb O O
segment O O
including O O
the O O
RING1 S-GENE O
, O O
HKE6 S-GENE O
, O O
and O O
HKE4 B-GENE O
genes E-GENE O
. O O
The O O
synthesis O O
of O O
endo O O
- O O
adduct O O
[ O O
4aS O O
, O O
5S O O
, O O
8R O O
, O O
8aR O O
, O O
SS O O
] O O
- O O
9d O O
resulting O O
from O O
cycloaddition O O
on O O
the O O
substituted O O
C O O
( O O
2 O O
) O O
- O O
C O O
( O O
3 O O
) O O
double O O
bond O O
was O O
achieved O O
in O O
a O O
chemo O O
- O O
and O O
diastereoselective O O
way O O
from O O
quinone O O
1d O O
in O O
the O O
presence O O
of O O
ZnBr O O
( O O
2 O O
) O O
. O O
DNA O O
elements O O
recognizing O O
NF B-GENE O
- I-GENE O
Y E-GENE O
and O O
Sp1 S-GENE O
regulate O O
the O O
human B-GENE O
multidrug I-GENE O
- I-GENE O
resistance I-GENE O
gene I-GENE O
promoter E-GENE O
. O O
Radioimmunoassay O O
of O O
plasma B-GENE O
gonadotropins E-GENE O
; O O
problems O O
of O O
specificity O O
Patients O O
randomized O O
into O O
the O O
active O O
treatment O O
groups O O
A30 O O
( O O
n O O
= O O
49 O O
) O O
and O O
A60 O O
( O O
n O O
= O O
48 O O
) O O
received O O
topical O O
treatment O O
with O O
3 O O
. O O
0 O O
% O O
diclofenac O O
in O O
2 O O
. O O
5 O O
% O O
hyaluronan O O
gel O O
0 O O
. O O
5 O O
g O O
twice O O
daily O O
for O O
30 O O
or O O
60 O O
days O O
, O O
respectively O O
. O O
As O O
tat S-GENE O
itself O O
dramatically O O
increases O O
HIV O O
- O O
1 O O
gene O O
expression O O
, O O
it O O
too O O
is O O
presumably O O
regulated O O
in O O
the O O
latent O O
state O O
, O O
and O O
may O O
also O O
be O O
activated O O
by O O
mitogenic O O
stimulation O O
. O O
To O O
clarify O O
the O O
difference O O
, O O
both O O
the O O
Crk B-GENE O
II E-GENE O
and O O
Crk B-GENE O
II I-GENE O
- I-GENE O
23 E-GENE O
, O O
proteins O O
were O O
expressed O O
in O O
E O O
. O O
coli O O
and O O
examined O O
their O O
binding O O
capacity O O
in O O
vitro O O
. O O
CONCLUSIONS O O
: O O
Systemic O O
factors O O
that O O
increase O O
bone O O
mineral O O
density O O
appear O O
to O O
be O O
involved O O
in O O
the O O
pathogenesis O O
of O O
ossification O O
of O O
the O O
posterior O O
longitudinal O O
ligament O O
, O O
and O O
these O O
factors O O
may O O
be O O
activated O O
after O O
middle O O
age O O
. O O
Thus O O
, O O
in O O
V O O
. O O
furnissii O O
, O O
the O O
E B-GENE O
. I-GENE O
coli I-GENE O
manX I-GENE O
equivalent E-GENE O
comprises O O
two O O
genes O O
, O O
which O O
are O O
separated O O
in O O
the O O
genome O O
by O O
two O O
other O O
genes O O
of O O
the O O
ptsM B-GENE O
complex E-GENE O
. O O
Id B-GENE O
- I-GENE O
1H E-GENE O
and O O
Id B-GENE O
- I-GENE O
2H E-GENE O
seem O O
to O O
be O O
human O O
homologues O O
of O O
mouse B-GENE O
Id I-GENE O
- I-GENE O
1 E-GENE O
and O O
Id B-GENE O
- I-GENE O
2 E-GENE O
, O O
respectively O O
, O O
and O O
have O O
potential O O
to O O
encode O O
154 O O
and O O
135 O O
amino O O
acid O O
proteins O O
. O O
Characterization O O
of O O
insertion O O
mutations O O
in O O
the O O
Saccharomyces B-GENE O
cerevisiae I-GENE O
MSH1 E-GENE O
and O O
MSH2 B-GENE O
genes E-GENE O
: O O
evidence O O
for O O
separate O O
mitochondrial O O
and O O
nuclear O O
functions O O
. O O
Transcription O O
of O O
FN B-GENE O
promoter E-GENE O
- O O
chloramphenicol B-GENE O
acetyltransferase E-GENE O
fusion O O
genes O O
carrying O O
the O O
base O O
substitution O O
in O O
one O O
or O O
more O O
of O O
these O O
G O O
- O O
rich O O
sequences O O
both O O
in O O
vivo O O
and O O
in O O
vitro O O
revealed O O
that O O
the O O
base O O
substitution O O
in O O
any O O
G O O
- O O
rich O O
sequence O O
results O O
in O O
reduction O O
of O O
promoter O O
activity O O
, O O
although O O
the O O
downstream O O
GC O O
box O O
( O O
GCd O O
) O O
plays O O
a O O
primary O O
role O O
. O O
Morphologically O O
, O O
corrugation O O
of O O
the O O
internal O O
elastic O O
lamina O O
of O O
vessels O O
was O O
often O O
observed O O
in O O
the O O
vehicle O O
- O O
treated O O
group O O
, O O
but O O
was O O
not O O
prominent O O
in O O
the O O
GLNVA O O
- O O
treated O O
groups O O
or O O
healthy O O
controls O O
. O O
A O O
GT O O
- O O
rich O O
sequence O O
binding O O
the O O
transcription B-GENE O
factor I-GENE O
Sp1 E-GENE O
is O O
crucial O O
for O O
high O O
expression O O
of O O
the O O
human B-GENE O
type I-GENE O
VII I-GENE O
collagen I-GENE O
gene E-GENE O
( O O
COL7A1 S-GENE O
) O O
in O O
fibroblasts O O
and O O
keratinocytes O O
. O O
Each O O
received O O
20 O O
mL O O
of O O
one O O
of O O
three O O
test O O
solutions O O
: O O
levobupivacaine O O
control O O
, O O
levobupivacaine O O
and O O
fentanyl O O
2 O O
microg O O
/ O O
mL O O
, O O
or O O
levobupivacaine O O
and O O
fentanyl O O
3 O O
microg O O
/ O O
mL O O
. O O
The O O
XPR2 B-GENE O
gene E-GENE O
from O O
Yarrowia O O
lipolytica O O
encodes O O
an O O
inducible O O
alkaline B-GENE O
extracellular I-GENE O
protease E-GENE O
. O O
CONCLUSIONS O O
: O O
This O O
study O O
shows O O
that O O
the O O
annual O O
rate O O
of O O
de O O
novo O O
aneurysm O O
formation O O
is O O
relatively O O
high O O
( O O
0 O O
. O O
89 O O
% O O
) O O
and O O
that O O
the O O
cumulative O O
risk O O
becomes O O
significant O O
after O O
9 O O
years O O
. O O
It O O
was O O
found O O
that O O
Nopp140 S-GENE O
binds O O
primarily O O
to O O
the O O
CK2 B-GENE O
regulatory I-GENE O
subunit I-GENE O
, I-GENE O
beta E-GENE O
. O O
Juvenile O O
idiopathic O O
inflammatory O O
myopathies O O
: O O
the O O
value O O
of O O
magnetic O O
resonance O O
imaging O O
in O O
the O O
detection O O
of O O
muscle O O
involvement O O
. O O
Previous O O
analysis O O
of O O
this O O
motif O O
in O O
the O O
lactose B-GENE O
permease E-GENE O
( O O
A O O
. O O
Combined O O
chemotherapy O O
with O O
VM O O
26 O O
and O O
BCNU O O
for O O
recurrent O O
malignant O O
gliomas O O
after O O
operation O O
and O O
irradiation O O
. O O
Like O O
other O O
IAPs S-GENE O
, O O
ch B-GENE O
- I-GENE O
IAP1 E-GENE O
contains O O
the O O
N B-GENE O
- I-GENE O
terminal I-GENE O
baculovirus I-GENE O
IAP I-GENE O
repeats E-GENE O
and O O
C O O
- O O
terminal O O
RING O O
finger O O
motifs O O
. O O
Effects O O
of O O
long O O
- O O
term O O
use O O
of O O
raloxifene O O
, O O
a O O
selective O O
estrogen B-GENE O
receptor E-GENE O
modulator O O
, O O
on O O
thyroid O O
function O O
test O O
profiles O O
. O O
The O O
donors O O
of O O
10 O O
patients O O
were O O
ABO O O
- O O
incompatible O O
, O O
and O O
for O O
five O O
pairs O O
the O O
ABO O O
incompatibility O O
was O O
major O O
. O O
Alternative O O
splicing O O
of O O
the O O
human B-GENE O
serotonin I-GENE O
transporter I-GENE O
gene E-GENE O
. O O
Interestingly O O
, O O
basal O O
MAPK S-GENE O
, O O
but O O
not O O
Raf B-GENE O
- I-GENE O
1 E-GENE O
, O O
activity O O
was O O
constitutively O O
enhanced O O
in O O
Jak1 S-GENE O
- O O
deficient O O
HeLa O O
cells O O
. O O
This O O
case O O
report O O
describes O O
the O O
treatment O O
of O O
a O O
patient O O
with O O
periodontosis O O
. O O
The O O
aim O O
of O O
this O O
work O O
was O O
to O O
organize O O
chemical O O
data O O
in O O
a O O
client O O
- O O
server O O
environment O O
using O O
Database O O
Management O O
System O O
and O O
Web O O
fashion O O
for O O
the O O
client O O
interface O O
. O O
Cerumen O O
management O O
in O O
hearing O O
conservation O O
: O O
the O O
Dallas O O
( O O
Texas O O
) O O
Independent O O
School O O
District O O
program O O
. O O
Lactate O O
, O O
pyruvate O O
and O O
actual O O
pH O O
values O O
in O O
the O O
venous O O
blood O O
of O O
newborn O O
calves O O
This O O
article O O
focuses O O
on O O
a O O
general O O
approach O O
to O O
the O O
use O O
of O O
ARV O O
agents O O
. O O
Platelets O O
and O O
RBCs O O
from O O
each O O
animal O O
were O O
labeled O O
with O O
51Cr O O
and O O
99mTc O O
, O O
respectively O O
, O O
and O O
were O O
rapidly O O
injected O O
into O O
the O O
right O O
atrium O O
while O O
blood O O
was O O
sampled O O
from O O
the O O
ascending O O
aorta O O
. O O
The O O
comparisons O O
of O O
swimming O O
performance O O
before O O
and O O
after O O
treatments O O
with O O
deltamethrin O O
have O O
shown O O
a O O
significant O O
effect O O
on O O
locomotory O O
ability O O
of O O
rainbow O O
trout O O
which O O
at O O
the O O
end O O
of O O
strong O O
exposure O O
( O O
e O O
. O O
g O O
. O O
Protection O O
levels O O
of O O
33 O O
. O O
3 O O
% O O
, O O
36 O O
. O O
6 O O
% O O
and O O
37 O O
. O O
0 O O
% O O
were O O
achieved O O
in O O
groups O O
which O O
had O O
received O O
, O O
respectively O O
, O O
1000 O O
20 O O
- O O
krad O O
cercariae O O
, O O
1000 O O
10 O O
- O O
krad O O
cercariae O O
, O O
2000 O O
40 O O
- O O
krad O O
cercariae O O
and O O
2000 O O
60 O O
- O O
krad O O
cercariae O O
. O O
In O O
Types O O
I O O
and O O
II O O
, O O
capillary O O
walls O O
became O O
thinner O O
and O O
more O O
capillary O O
lumens O O
were O O
visiable O O
. O O
Thus O O
, O O
primate O O
vs O O
. O O
rodent O O
promoter O O
selectivity O O
mediated O O
by O O
the O O
TBP S-GENE O
- O O
TAFI S-GENE O
complex O O
is O O
likely O O
to O O
be O O
the O O
result O O
of O O
cumulative O O
subtle O O
differences O O
between O O
individual O O
subunits O O
that O O
lead O O
to O O
species O O
- O O
specific O O
properties O O
of O O
RNA B-GENE O
polymerase I-GENE O
I E-GENE O
transcription O O
. O O
The O O
effects O O
of O O
pretreatment O O
with O O
the O O
non O O
- O O
competitive O O
NMDA O O
antagonist O O
( O O
+ O O
) O O
MK O O
- O O
801 O O
on O O
the O O
behavioral O O
alterations O O
induced O O
by O O
repeated O O
restraint O O
stress O O
were O O
investigated O O
. O O
When O O
gene O O
conversion O O
is O O
initiated O O
by O O
a O O
double O O
- O O
strand O O
break O O
( O O
DSB O O
) O O
, O O
any O O
nonhomologous O O
DNA O O
that O O
may O O
be O O
present O O
at O O
the O O
ends O O
must O O
be O O
removed O O
before O O
new O O
DNA O O
synthesis O O
can O O
be O O
initiated O O
. O O
In O O
this O O
reconstituted O O
system O O
, O O
RNAP B-GENE O
IIA E-GENE O
, O O
but O O
not O O
RNAP B-GENE O
IIB E-GENE O
, O O
can O O
transcribe O O
from O O
the O O
DHFR B-GENE O
promoter E-GENE O
. O O
The O O
cDNA O O
clones O O
encode O O
a O O
polypeptide O O
of O O
657 O O
amino O O
acids O O
with O O
a O O
bHLH O O
( O O
basic O O
- O O
helix O O
- O O
loop O O
- O O
helix O O
) O O
domain O O
, O O
characteristic O O
of O O
a O O
large O O
family O O
of O O
transcription O O
factors O O
, O O
and O O
a O O
PAS S-GENE O
( O O
Per S-GENE O
- O O
Arnt S-GENE O
- O O
Sim S-GENE O
) O O
domain O O
in O O
the O O
amino O O
- O O
terminal O O
half O O
region O O
. O O
FTF O O
( O O
Joint O O
Council O O
of O O
Civil O O
Servants O O
and O O
Functionaries O O
) O O
: O O
clarification O O
about O O
membership O O
in O O
the O O
main O O
organizations O O
Lumbar O O
spine O O
bone O O
mineral O O
density O O
( O O
BMD O O
) O O
by O O
dual O O
- O O
energy O O
X O O
- O O
ray O O
absorptiometry O O
( O O
DXA O O
) O O
increased O O
by O O
0 O O
. O O
6 O O
% O O
, O O
3 O O
. O O
6 O O
% O O
and O O
8 O O
. O O
1 O O
% O O
after O O
48 O O
weeks O O
in O O
groups O O
L O O
, O O
M O O
and O O
H O O
respectively O O
, O O
responses O O
in O O
groups O O
M O O
and O O
H O O
being O O
significantly O O
higher O O
than O O
in O O
L O O
( O O
p O O
< O O
0 O O
. O O
05 O O
, O O
Mann O O
- O O
Whitney O O
U O O
- O O
test O O
) O O
. O O
Synergy O O
between O O
interferon B-GENE O
- I-GENE O
gamma E-GENE O
and O O
tumor B-GENE O
necrosis I-GENE O
factor I-GENE O
- I-GENE O
alpha E-GENE O
in O O
transcriptional O O
activation O O
is O O
mediated O O
by O O
cooperation O O
between O O
signal B-GENE O
transducer I-GENE O
and I-GENE O
activator I-GENE O
of I-GENE O
transcription I-GENE O
1 E-GENE O
and O O
nuclear B-GENE O
factor I-GENE O
kappaB E-GENE O
. O O
1H O O
and O O
15N O O
magnetic O O
resonance O O
assignments O O
, O O
secondary O O
structure O O
, O O
and O O
tertiary O O
fold O O
of O O
Escherichia B-GENE O
coli I-GENE O
DnaJ I-GENE O
( I-GENE O
1 I-GENE O
- I-GENE O
78 I-GENE O
) E-GENE O
. O O
A O O
cDNA O O
for O O
human B-GENE O
microfibril I-GENE O
- I-GENE O
associated I-GENE O
glycoprotein I-GENE O
- I-GENE O
2 E-GENE O
( O O
MAGP B-GENE O
- I-GENE O
2 E-GENE O
) O O
was O O
used O O
to O O
screen O O
a O O
human O O
leukocyte O O
genomic O O
DNA O O
library O O
in O O
EMBL O O
- O O
3 O O
vector O O
. O O
Furthermore O O
, O O
ERK S-GENE O
phosphorylation O O
was O O
substantially O O
prolonged O O
in O O
LC O O
/ O O
BRY O O
- O O
treated O O
cells O O
compared O O
to O O
those O O
exposed O O
to O O
BRY O O
alone O O
, O O
and O O
pretreatment O O
with O O
the O O
highly O O
specific O O
MEK S-GENE O
inhibitors O O
, O O
PD98059 O O
, O O
U0126 O O
, O O
and O O
SL327 O O
, O O
opposed O O
ERK S-GENE O
activation O O
while O O
protecting O O
cells O O
from O O
LC O O
/ O O
BRY O O
- O O
induced O O
lethality O O
. O O
The O O
cholesterol B-GENE O
7alpha I-GENE O
- I-GENE O
hydroxylase I-GENE O
gene E-GENE O
( O O
CYP7A S-GENE O
) O O
is O O
transcriptionally O O
regulated O O
by O O
a O O
number O O
of O O
factors O O
, O O
including O O
hormones O O
, O O
bile O O
acids O O
, O O
and O O
diurnal O O
rhythm O O
. O O
CNS O O
preventive O O
treatment O O
without O O
cranial O O
irradiation O O
was O O
effective O O
in O O
all O O
the O O
groups O O
of O O
ALL O O
patients O O
. O O
Additionally O O
, O O
the O O
members O O
of O O
this O O
family O O
display O O
strong O O
sequence O O
homologies O O
between O O
their O O
larger O O
C O O
- O O
terminal O O
effector O O
binding O O
/ O O
oligomerization O O
domains O O
. O O
Aspartame O O
is O O
a O O
synthetic O O
sweetener O O
commonly O O
used O O
in O O
soft O O
drinks O O
and O O
many O O
foods O O
. O O
The O O
rat O O
anococcygeus O O
muscle O O
was O O
used O O
in O O
postsynaptic O O
studies O O
. O O
The O O
purpose O O
of O O
this O O
presentation O O
is O O
to O O
review O O
the O O
current O O
state O O
of O O
knowledge O O
regarding O O
5 O O
, O O
8 O O
, O O
11 O O
, O O
14 O O
- O O
eicosatetraynoic O O
acid O O
( O O
ETYA O O
, O O
Ro O O
3 O O
- O O
1428 O O
) O O
and O O
its O O
effects O O
on O O
lipid O O
metabolism O O
. O O
A O O
Meis1 B-GENE O
cDNA E-GENE O
clone O O
that O O
encoded O O
a O O
novel O O
member O O
of O O
the O O
homeobox B-GENE O
gene I-GENE O
family E-GENE O
was O O
identified O O
. O O
The O O
S B-GENE O
. I-GENE O
typhimurium I-GENE O
aspartyl I-GENE O
/ I-GENE O
asparaginyl I-GENE O
beta I-GENE O
- I-GENE O
hydroxylase I-GENE O
homologue E-GENE O
( O O
designated O O
lpxO S-GENE O
) O O
was O O
cloned O O
into O O
pBluescriptSK O O
and O O
expressed O O
in O O
Escherichia O O
coli O O
K O O
- O O
12 O O
, O O
which O O
does O O
not O O
contain O O
lpxO S-GENE O
. O O
The O O
levels O O
of O O
soluble O O
L B-GENE O
- I-GENE O
selectin E-GENE O
and O O
ICAM B-GENE O
- I-GENE O
1 E-GENE O
in O O
the O O
serum O O
were O O
determined O O
by O O
the O O
ELISA O O
method O O
. O O
The O O
highest O O
TTX S-GENE O
content O O
is O O
10 O O
. O O
0 O O
microg O O
/ O O
g O O
in O O
N O O
. O O
livescens O O
. O O
On O O
the O O
other O O
hand O O
hypokalemia O O
, O O
induced O O
by O O
diuretics O O
, O O
may O O
also O O
be O O
accompanied O O
by O O
a O O
significant O O
depletion O O
of O O
total O O
body O O
K O O
, O O
bringing O O
about O O
more O O
general O O
consequences O O
. O O
Glutathione B-GENE O
reductase E-GENE O
activities O O
in O O
liver O O
, O O
kidney O O
, O O
lung O O
, O O
and O O
brain O O
were O O
not O O
affected O O
by O O
diet O O
. O O
Here O O
, O O
we O O
describe O O
the O O
nucleotide O O
( O O
nt O O
) O O
sequence O O
and O O
genomic O O
organization O O
of O O
ipiB S-GENE O
and O O
ipiO S-GENE O
. O O
Vancomycin O O
and O O
tetracycline O O
eliminated O O
toxin O O
in O O
stools O O
and O O
delayed O O
death O O
. O O
Soluble O O
fibrin S-GENE O
monomer O O
complexes O O
in O O
thromboembolism O O
Comparison O O
to O O
the O O
murine O O
homologues O O
of O O
these O O
molecules O O
reveals O O
a O O
high O O
degree O O
of O O
conservation O O
between O O
the O O
products O O
of O O
one O O
of O O
these O O
genes O O
, O O
Fc B-GENE O
gamma I-GENE O
RIIb E-GENE O
, O O
and O O
the O O
murine B-GENE O
beta I-GENE O
gene E-GENE O
in O O
primary O O
sequence O O
, O O
splicing O O
pattern O O
, O O
and O O
tissue O O
distribution O O
. O O
Acidosis O O
provoked O O
by O O
30 O O
% O O
CO2 O O
irreversibly O O
increased O O
the O O
BDRT O O
, O O
however O O
the O O
TRT O O
were O O
not O O
changed O O
. O O
Others O O
as O O
for O O
example O O
C O O
- O O
11 O O
labeled O O
short O O
chain O O
fatty O O
acids O O
are O O
on O O
the O O
horizon O O
. O O
The O O
average O O
progression O O
was O O
11 O O
. O O
6 O O
( O O
SD O O
9 O O
. O O
0 O O
) O O
. O O
80 O O
bp O O
) O O
surrounding O O
the O O
site O O
of O O
transcription O O
initiation O O
. O O
Ultrastructure O O
and O O
toxin O O
formation O O
of O O
Cor O O
. O O
diphtheriae O O
PW O O
- O O
8 O O
cultured O O
in O O
the O O
presence O O
of O O
penicillin O O
EMT S-GENE O
was O O
localized O O
to O O
chromosome O O
5q31 O O
- O O
32 O O
, O O
a O O
region O O
that O O
contains O O
the O O
genes O O
for O O
several O O
growth O O
factors O O
and O O
receptors O O
as O O
well O O
as O O
early O O
activation O O
genes O O
, O O
particularly O O
those O O
involved O O
in O O
the O O
hematopoietic O O
system O O
. O O
Tbx6 S-GENE O
maps O O
to O O
chromosome O O
7 O O
and O O
does O O
not O O
appear O O
to O O
be O O
linked O O
to O O
any O O
known O O
mutation O O
. O O
Kaposi O O
' O O
s O O
eruptive O O
disease O O
. O O
It O O
is O O
not O O
tested O O
yet O O
, O O
whether O O
the O O
extent O O
of O O
glaucoma O O
damage O O
should O O
be O O
better O O
quantified O O
using O O
reference O O
plane O O
1 O O
or O O
2 O O
. O O
Importin B-GENE O
beta E-GENE O
mediates O O
nuclear O O
translocation O O
of O O
Smad B-GENE O
3 E-GENE O
. O O
The O O
encoded O O
protein O O
contains O O
an O O
amino O O
terminal O O
PDZ S-GENE O
domain O O
, O O
followed O O
by O O
a O O
predicted O O
coiled O O
- O O
coil O O
region O O
, O O
a O O
PEST O O
domain O O
, O O
and O O
a O O
carboxy O O
- O O
terminal O O
SAM O O
domain O O
. O O
Using O O
lasers O O
, O O
PRK O O
involves O O
reshaping O O
the O O
cornea O O
so O O
that O O
its O O
refractive O O
power O O
is O O
increased O O
. O O
However O O
, O O
sphincter O O
length O O
decreased O O
with O O
age O O
from O O
24 O O
. O O
3 O O
to O O
14 O O
. O O
8 O O
mm O O
. O O
, O O
maximal O O
urethral O O
pressure O O
from O O
88 O O
. O O
7 O O
to O O
55 O O
cm O O
. O O
water O O
and O O
maximal O O
urethral O O
pressure O O
during O O
voluntary O O
contraction O O
from O O
221 O O
. O O
4 O O
to O O
